version 2
run General-0-20220322-23:02:11-14144
attr configname General
attr datetime 20220322-23:02:11
attr experiment General
attr inifile Deneme.ini
attr iterationvars ""
attr iterationvarsf ""
attr measurement ""
attr network Deneme
attr processid 14144
attr repetition 0
attr replication #0
attr resultdir results
attr runnumber 0
attr seedset 0
param *.ethSpeed 100Mbps
param *.cableLength 0m
param *.connDef[0].isEntryAnEndsystem true
param *.connDef[1].isEntryAnEndsystem true
param *.connDef[2].isEntryAnEndsystem true
param *.connDef[3].isEntryAnEndsystem true
param *.connDef[4].isEntryAnEndsystem true
param *.connDef[5].isEntryAnEndsystem false
param *.connDef[6].isEntryAnEndsystem false
param *.connDef[7].isEntryAnEndsystem true
param *.connDef[8].isEntryAnEndsystem true
param *.connDef[9].isEntryAnEndsystem false
param *.connDef[10].isEntryAnEndsystem false
param *.connDef[11].isEntryAnEndsystem false
param *.connDef[0].isExitAnEndsystem false
param *.connDef[1].isExitAnEndsystem false
param *.connDef[2].isExitAnEndsystem false
param *.connDef[3].isExitAnEndsystem false
param *.connDef[4].isExitAnEndsystem false
param *.connDef[5].isExitAnEndsystem false
param *.connDef[6].isExitAnEndsystem false
param *.connDef[7].isExitAnEndsystem false
param *.connDef[8].isExitAnEndsystem false
param *.connDef[9].isExitAnEndsystem false
param *.connDef[10].isExitAnEndsystem true
param *.connDef[11].isExitAnEndsystem true
param *.connDef[0].entryIndex 0
param *.connDef[1].entryIndex 1
param *.connDef[2].entryIndex 2
param *.connDef[3].entryIndex 3
param *.connDef[4].entryIndex 4
param *.connDef[5].entryIndex 0
param *.connDef[6].entryIndex 1
param *.connDef[7].entryIndex 5
param *.connDef[8].entryIndex 6
param *.connDef[9].entryIndex 2
param *.connDef[10].entryIndex 3
param *.connDef[11].entryIndex 3
param *.connDef[0].exitIndex 0
param *.connDef[1].exitIndex 0
param *.connDef[2].exitIndex 0
param *.connDef[3].exitIndex 1
param *.connDef[4].exitIndex 1
param *.connDef[5].exitIndex 2
param *.connDef[6].exitIndex 2
param *.connDef[7].exitIndex 2
param *.connDef[8].exitIndex 2
param *.connDef[9].exitIndex 3
param *.connDef[10].exitIndex 7
param *.connDef[11].exitIndex 8
param **.scheduler.serviceTime 0s
param **.switchFabric.delay.delay 0.000004s
param *.SwitchA[0].switchFabric.router.configTableName "\"Deneme_sw0.txt\""
param *.SwitchA[1].switchFabric.router.configTableName "\"Deneme_sw1.txt\""
param *.SwitchA[2].switchFabric.router.configTableName "\"Deneme_sw2.txt\""
param *.SwitchA[3].switchFabric.router.configTableName "\"Deneme_sw3.txt\""
param *.SwitchB[0].switchFabric.router.configTableName "\"Deneme_sw0.txt\""
param *.SwitchB[1].switchFabric.router.configTableName "\"Deneme_sw1.txt\""
param *.SwitchB[2].switchFabric.router.configTableName "\"Deneme_sw2.txt\""
param *.SwitchB[3].switchFabric.router.configTableName "\"Deneme_sw3.txt\""
param **.numberOfEndSystems 9
param **.numberOfSwitches 4
param **.ESGroup[0].messageCount 1
param **.ESGroup[1].messageCount 1
param **.ESGroup[2].messageCount 1
param **.ESGroup[3].messageCount 1
param **.ESGroup[4].messageCount 1
param **.ESGroup[5].messageCount 0
param **.ESGroup[6].messageCount 0
param **.ESGroup[7].messageCount 0
param **.ESGroup[8].messageCount 0
param **.ESGroup[*].*.delay 0.000032s
param **.skewMaxTester.skewMaxTestEnabled false
param **.redundancyChecker.skewMax 10ms
param **.regulatorLogic.maxVLIDQueueSize 1000
param **.stopTime 1s
param **.startTime 0s
param **.trafficSource[*].baudrate 0bps
param **.trafficSource[*].cableLength 0m
param **.trafficSource[*].deltaInterArrivalTimeMaxLimit 0s
param **.trafficSource[*].packetLength 1183
param **.ESGroup[0].trafficSource[*].interArrivalTime 0.001s
param **.ESGroup[1].trafficSource[*].interArrivalTime 0.001s
param **.ESGroup[2].trafficSource[*].interArrivalTime 0.001s
param **.ESGroup[3].trafficSource[*].interArrivalTime 0.001s
param **.ESGroup[4].trafficSource[*].interArrivalTime 0.001s
param **.ESGroup[5].trafficSource[*].interArrivalTime 0.001s
param **.ESGroup[6].trafficSource[*].interArrivalTime 0.001s
param **.ESGroup[7].trafficSource[*].interArrivalTime 0.001s
param **.ESGroup[8].trafficSource[*].interArrivalTime 0.001s
param **.ESGroup[0].trafficSource[*].partitionId 1
param **.ESGroup[1].trafficSource[*].partitionId 2
param **.ESGroup[2].trafficSource[*].partitionId 3
param **.ESGroup[3].trafficSource[*].partitionId 4
param **.ESGroup[4].trafficSource[*].partitionId 5
param **.ESGroup[5].trafficSource[*].partitionId 6
param **.ESGroup[6].trafficSource[*].partitionId 7
param **.ESGroup[7].trafficSource[*].partitionId 8
param **.ESGroup[8].trafficSource[*].partitionId 9
param **.afdxMarshall[*].networkId 88
param **.afdxMarshall[*].interfaceId 0
param **.afdxMarshall[*].seqNum 0
param **.afdxMarshall[*].udpSrcPort 0x1234
param **.afdxMarshall[*].udpDestPort 0x5678
param **.afdxMarshall[*].frameHeaderLength 47
param **.afdxMarshall[*].rho 10
param **.afdxMarshall[*].sigma 15000
param **.afdxMarshall[*].Lmax 1183
param **.afdxMarshall[*].deltaPacketLengthMaxLimit 0
param *.ESGroup[0].afdxMarshall[*].equipmentId 1
param *.ESGroup[1].afdxMarshall[*].equipmentId 2
param *.ESGroup[2].afdxMarshall[*].equipmentId 3
param *.ESGroup[3].afdxMarshall[*].equipmentId 4
param *.ESGroup[4].afdxMarshall[*].equipmentId 5
param *.ESGroup[5].afdxMarshall[*].equipmentId 6
param *.ESGroup[6].afdxMarshall[*].equipmentId 7
param *.ESGroup[7].afdxMarshall[*].equipmentId 8
param *.ESGroup[8].afdxMarshall[*].equipmentId 9
param **.ESGroup[0].afdxMarshall[*].BAG 0.001s
param **.ESGroup[1].afdxMarshall[*].BAG 0.001s
param **.ESGroup[2].afdxMarshall[*].BAG 0.001s
param **.ESGroup[3].afdxMarshall[*].BAG 0.001s
param **.ESGroup[4].afdxMarshall[*].BAG 0.001s
param **.ESGroup[5].afdxMarshall[*].BAG 0.001s
param **.ESGroup[6].afdxMarshall[*].BAG 0.001s
param **.ESGroup[7].afdxMarshall[*].BAG 0.001s
param **.ESGroup[8].afdxMarshall[*].BAG 0.001s
param **.ESGroup[0].afdxMarshall[*].virtualLinkId 1
param **.ESGroup[1].afdxMarshall[*].virtualLinkId 2
param **.ESGroup[2].afdxMarshall[*].virtualLinkId 3
param **.ESGroup[3].afdxMarshall[*].virtualLinkId 4
param **.ESGroup[4].afdxMarshall[*].virtualLinkId 5
param **.ESGroup[5].afdxMarshall[*].virtualLinkId 6
param **.ESGroup[6].afdxMarshall[*].virtualLinkId 7
param **.ESGroup[7].afdxMarshall[*].virtualLinkId 8
param **.ESGroup[8].afdxMarshall[*].virtualLinkId 9

vector 0 Deneme.ESGroup[0].afdxMarshall[0] sourceRecorder_1 ETV
vector 1 Deneme.ESGroup[1].afdxMarshall[0] sourceRecorder_2 ETV
vector 2 Deneme.ESGroup[2].afdxMarshall[0] sourceRecorder_3 ETV
vector 3 Deneme.ESGroup[3].afdxMarshall[0] sourceRecorder_4 ETV
vector 4 Deneme.ESGroup[4].afdxMarshall[0] sourceRecorder_5 ETV
vector 5 Deneme.ESGroup[0].afdxMarshall[0] bagRecorder_1 ETV
vector 6 Deneme.ESGroup[1].afdxMarshall[0] bagRecorder_2 ETV
vector 7 Deneme.ESGroup[2].afdxMarshall[0] bagRecorder_3 ETV
vector 8 Deneme.ESGroup[3].afdxMarshall[0] bagRecorder_4 ETV
vector 9 Deneme.ESGroup[4].afdxMarshall[0] bagRecorder_5 ETV
vector 10 Deneme.ESGroup[0].afdxMarshall[0] periodicityAtESOut_1 ETV
vector 11 Deneme.ESGroup[1].afdxMarshall[0] periodicityAtESOut_2 ETV
vector 12 Deneme.ESGroup[2].afdxMarshall[0] periodicityAtESOut_3 ETV
vector 13 Deneme.ESGroup[3].afdxMarshall[0] periodicityAtESOut_4 ETV
vector 14 Deneme.ESGroup[4].afdxMarshall[0] periodicityAtESOut_5 ETV
vector 15 Deneme.SwitchA[0].switchFabric.priorityClassifier entry_23 ETV
vector 16 Deneme.SwitchA[1].switchFabric.priorityClassifier entry_24 ETV
vector 17 Deneme.SwitchA[0].switchFabric.priorityClassifier exit_23 ETV
vector 18 Deneme.SwitchA[0].switchFabric.priorityClassifier packetCount_23 ETV
vector 19 Deneme.SwitchA[1].switchFabric.priorityClassifier exit_24 ETV
vector 20 Deneme.SwitchA[1].switchFabric.priorityClassifier packetCount_24 ETV
vector 21 Deneme.SwitchA[2].switchFabric.priorityClassifier entry_25 ETV
vector 22 Deneme.SwitchA[2].switchFabric.priorityClassifier exit_25 ETV
vector 23 Deneme.SwitchA[2].switchFabric.priorityClassifier packetCount_25 ETV
vector 24 Deneme.SwitchA[3].switchFabric.priorityClassifier entry_26 ETV
vector 25 Deneme.SwitchA[3].switchFabric.priorityClassifier exit_26 ETV
vector 26 Deneme.SwitchA[3].switchFabric.priorityClassifier packetCount_26 ETV
vector 27 Deneme.ESGroup[0].afdxMarshall[0] BitCountDis_1 ETV
vector 28 Deneme.ESGroup[0].afdxMarshall[0] BitCountCum_1 ETV
vector 29 Deneme.ESGroup[1].afdxMarshall[0] BitCountDis_2 ETV
vector 30 Deneme.ESGroup[1].afdxMarshall[0] BitCountCum_2 ETV
vector 31 Deneme.ESGroup[3].afdxMarshall[0] BitCountDis_4 ETV
vector 32 Deneme.ESGroup[3].afdxMarshall[0] BitCountCum_4 ETV
vector 33 Deneme.ESGroup[2].afdxMarshall[0] BitCountDis_3 ETV
vector 34 Deneme.ESGroup[2].afdxMarshall[0] BitCountCum_3 ETV
vector 35 Deneme.ESGroup[4].afdxMarshall[0] BitCountDis_5 ETV
vector 36 Deneme.ESGroup[4].afdxMarshall[0] BitCountCum_5 ETV
0	6	0	1
0	433	0.001	1
0	865	0.002	1
0	1297	0.003	1
0	1729	0.004	1
0	2161	0.005	1
0	2593	0.006	1
0	3025	0.007	1
0	3457	0.008	1
0	3889	0.009	1
0	4321	0.01	1
0	4753	0.011	1
0	5185	0.012	1
0	5617	0.013	1
0	6049	0.014	1
0	6481	0.015	1
0	6913	0.016	1
0	7345	0.017	1
0	7777	0.018	1
0	8209	0.019	1
0	8641	0.02	1
0	9073	0.021	1
0	9505	0.022	1
0	9937	0.023	1
0	10369	0.024	1
0	10801	0.025	1
0	11233	0.026	1
0	11665	0.027	1
0	12097	0.028	1
0	12529	0.029	1
0	12961	0.03	1
0	13393	0.031	1
0	13825	0.032	1
0	14257	0.033	1
0	14689	0.034	1
0	15121	0.035	1
0	15553	0.036	1
0	15985	0.037	1
0	16417	0.038	1
0	16849	0.039	1
0	17281	0.04	1
0	17713	0.041	1
0	18145	0.042	1
0	18577	0.043	1
0	19009	0.044	1
0	19441	0.045	1
0	19873	0.046	1
0	20305	0.047	1
0	20737	0.048	1
0	21169	0.049	1
0	21601	0.05	1
0	22033	0.051	1
0	22465	0.052	1
0	22897	0.053	1
0	23329	0.054	1
0	23761	0.055	1
0	24193	0.056	1
0	24625	0.057	1
0	25057	0.058	1
0	25489	0.059	1
0	25921	0.06	1
0	26353	0.061	1
0	26785	0.062	1
0	27217	0.063	1
0	27649	0.064	1
0	28081	0.065	1
0	28513	0.066	1
0	28945	0.067	1
0	29377	0.068	1
0	29809	0.069	1
0	30241	0.07	1
0	30673	0.071	1
0	31105	0.072	1
0	31537	0.073	1
0	31969	0.074	1
0	32401	0.075	1
0	32833	0.076	1
0	33265	0.077	1
0	33697	0.078	1
0	34129	0.079	1
0	34561	0.08	1
0	34993	0.081	1
0	35425	0.082	1
0	35857	0.083	1
0	36289	0.084	1
0	36721	0.085	1
0	37153	0.086	1
0	37585	0.087	1
0	38017	0.088	1
0	38449	0.089	1
0	38881	0.09	1
0	39313	0.091	1
0	39745	0.092	1
0	40177	0.093	1
0	40609	0.094	1
0	41041	0.095	1
0	41473	0.096	1
0	41905	0.097	1
0	42337	0.098	1
0	42769	0.099	1
0	43201	0.1	1
0	43633	0.101	1
0	44065	0.102	1
0	44497	0.103	1
0	44929	0.104	1
0	45361	0.105	1
0	45793	0.106	1
0	46225	0.107	1
0	46657	0.108	1
0	47089	0.109	1
0	47521	0.11	1
0	47953	0.111	1
0	48385	0.112	1
0	48817	0.113	1
0	49249	0.114	1
0	49681	0.115	1
0	50113	0.116	1
0	50545	0.117	1
0	50977	0.118	1
0	51409	0.119	1
0	51841	0.12	1
0	52273	0.121	1
0	52705	0.122	1
0	53137	0.123	1
0	53569	0.124	1
0	54001	0.125	1
0	54433	0.126	1
0	54865	0.127	1
0	55297	0.128	1
0	55729	0.129	1
0	56161	0.13	1
0	56593	0.131	1
0	57025	0.132	1
0	57457	0.133	1
0	57889	0.134	1
0	58321	0.135	1
0	58753	0.136	1
0	59185	0.137	1
0	59617	0.138	1
0	60049	0.139	1
0	60481	0.14	1
0	60913	0.141	1
0	61345	0.142	1
0	61777	0.143	1
0	62209	0.144	1
0	62641	0.145	1
0	63073	0.146	1
0	63505	0.147	1
0	63937	0.148	1
0	64369	0.149	1
0	64801	0.15	1
0	65233	0.151	1
0	65665	0.152	1
0	66097	0.153	1
0	66529	0.154	1
0	66961	0.155	1
0	67393	0.156	1
0	67825	0.157	1
0	68257	0.158	1
0	68689	0.159	1
0	69121	0.16	1
0	69553	0.161	1
0	69985	0.162	1
0	70417	0.163	1
0	70849	0.164	1
0	71281	0.165	1
0	71713	0.166	1
0	72145	0.167	1
0	72577	0.168	1
0	73009	0.169	1
0	73441	0.17	1
0	73873	0.171	1
0	74305	0.172	1
0	74737	0.173	1
0	75169	0.174	1
0	75601	0.175	1
0	76033	0.176	1
0	76465	0.177	1
0	76897	0.178	1
0	77329	0.179	1
0	77761	0.18	1
0	78193	0.181	1
0	78625	0.182	1
0	79057	0.183	1
0	79489	0.184	1
0	79921	0.185	1
0	80353	0.186	1
0	80785	0.187	1
0	81217	0.188	1
0	81649	0.189	1
0	82081	0.19	1
0	82513	0.191	1
0	82945	0.192	1
0	83377	0.193	1
0	83809	0.194	1
0	84241	0.195	1
0	84673	0.196	1
0	85105	0.197	1
0	85537	0.198	1
0	85969	0.199	1
0	86401	0.2	1
0	86833	0.201	1
0	87265	0.202	1
0	87697	0.203	1
0	88129	0.204	1
0	88561	0.205	1
0	88993	0.206	1
0	89425	0.207	1
0	89857	0.208	1
0	90289	0.209	1
0	90721	0.21	1
0	91153	0.211	1
0	91585	0.212	1
0	92017	0.213	1
0	92449	0.214	1
0	92881	0.215	1
0	93313	0.216	1
0	93745	0.217	1
0	94177	0.218	1
0	94609	0.219	1
0	95041	0.22	1
0	95473	0.221	1
0	95905	0.222	1
0	96337	0.223	1
0	96769	0.224	1
0	97201	0.225	1
0	97633	0.226	1
0	98065	0.227	1
0	98497	0.228	1
0	98929	0.229	1
0	99361	0.23	1
0	99793	0.231	1
0	100225	0.232	1
0	100657	0.233	1
0	101089	0.234	1
0	101521	0.235	1
0	101953	0.236	1
0	102385	0.237	1
0	102817	0.238	1
0	103249	0.239	1
0	103681	0.24	1
0	104113	0.241	1
0	104545	0.242	1
0	104977	0.243	1
0	105409	0.244	1
0	105841	0.245	1
0	106273	0.246	1
0	106705	0.247	1
0	107137	0.248	1
0	107569	0.249	1
0	108001	0.25	1
0	108433	0.251	1
0	108865	0.252	1
0	109297	0.253	1
0	109729	0.254	1
0	110161	0.255	1
0	110593	0.256	1
0	111025	0.257	1
0	111457	0.258	1
0	111889	0.259	1
0	112321	0.26	1
0	112753	0.261	1
0	113185	0.262	1
0	113617	0.263	1
0	114049	0.264	1
0	114481	0.265	1
0	114913	0.266	1
0	115345	0.267	1
0	115777	0.268	1
0	116209	0.269	1
0	116641	0.27	1
0	117073	0.271	1
0	117505	0.272	1
0	117937	0.273	1
0	118369	0.274	1
0	118801	0.275	1
0	119233	0.276	1
0	119665	0.277	1
0	120097	0.278	1
0	120529	0.279	1
0	120961	0.28	1
0	121393	0.281	1
0	121825	0.282	1
0	122257	0.283	1
0	122689	0.284	1
0	123121	0.285	1
0	123553	0.286	1
0	123985	0.287	1
0	124417	0.288	1
0	124849	0.289	1
0	125281	0.29	1
0	125713	0.291	1
0	126145	0.292	1
0	126577	0.293	1
0	127009	0.294	1
0	127441	0.295	1
0	127873	0.296	1
0	128305	0.297	1
0	128737	0.298	1
0	129169	0.299	1
0	129601	0.3	1
0	130033	0.301	1
0	130465	0.302	1
0	130897	0.303	1
0	131329	0.304	1
0	131761	0.305	1
0	132193	0.306	1
0	132625	0.307	1
0	133057	0.308	1
0	133489	0.309	1
0	133921	0.31	1
0	134353	0.311	1
0	134785	0.312	1
0	135217	0.313	1
0	135649	0.314	1
0	136081	0.315	1
0	136513	0.316	1
0	136945	0.317	1
0	137377	0.318	1
0	137809	0.319	1
0	138241	0.32	1
0	138673	0.321	1
0	139105	0.322	1
0	139537	0.323	1
0	139969	0.324	1
0	140401	0.325	1
0	140833	0.326	1
0	141265	0.327	1
0	141697	0.328	1
0	142129	0.329	1
0	142561	0.33	1
0	142993	0.331	1
0	143425	0.332	1
0	143857	0.333	1
0	144289	0.334	1
0	144721	0.335	1
0	145153	0.336	1
0	145585	0.337	1
0	146017	0.338	1
0	146449	0.339	1
0	146881	0.34	1
0	147313	0.341	1
0	147745	0.342	1
0	148177	0.343	1
0	148609	0.344	1
0	149041	0.345	1
0	149473	0.346	1
0	149905	0.347	1
0	150337	0.348	1
0	150769	0.349	1
0	151201	0.35	1
0	151633	0.351	1
0	152065	0.352	1
0	152497	0.353	1
0	152929	0.354	1
0	153361	0.355	1
0	153793	0.356	1
0	154225	0.357	1
0	154657	0.358	1
0	155089	0.359	1
0	155521	0.36	1
0	155953	0.361	1
0	156385	0.362	1
0	156817	0.363	1
0	157249	0.364	1
0	157681	0.365	1
0	158113	0.366	1
0	158545	0.367	1
0	158977	0.368	1
0	159409	0.369	1
0	159841	0.37	1
0	160273	0.371	1
0	160705	0.372	1
0	161137	0.373	1
0	161569	0.374	1
0	162001	0.375	1
0	162433	0.376	1
0	162865	0.377	1
0	163297	0.378	1
0	163729	0.379	1
0	164161	0.38	1
0	164593	0.381	1
0	165025	0.382	1
0	165457	0.383	1
0	165889	0.384	1
0	166321	0.385	1
0	166753	0.386	1
0	167185	0.387	1
0	167617	0.388	1
0	168049	0.389	1
0	168481	0.39	1
0	168913	0.391	1
0	169345	0.392	1
0	169777	0.393	1
0	170209	0.394	1
0	170641	0.395	1
0	171073	0.396	1
0	171505	0.397	1
0	171937	0.398	1
0	172369	0.399	1
0	172801	0.4	1
0	173233	0.401	1
0	173665	0.402	1
0	174097	0.403	1
0	174529	0.404	1
0	174961	0.405	1
0	175393	0.406	1
0	175825	0.407	1
0	176257	0.408	1
0	176689	0.409	1
0	177121	0.41	1
0	177553	0.411	1
0	177985	0.412	1
0	178417	0.413	1
0	178849	0.414	1
0	179281	0.415	1
0	179713	0.416	1
0	180145	0.417	1
0	180577	0.418	1
0	181009	0.419	1
0	181441	0.42	1
0	181873	0.421	1
0	182305	0.422	1
0	182737	0.423	1
0	183169	0.424	1
0	183601	0.425	1
0	184033	0.426	1
0	184465	0.427	1
0	184897	0.428	1
0	185329	0.429	1
0	185761	0.43	1
0	186193	0.431	1
0	186625	0.432	1
0	187057	0.433	1
0	187489	0.434	1
0	187921	0.435	1
0	188353	0.436	1
0	188785	0.437	1
0	189217	0.438	1
0	189649	0.439	1
0	190081	0.44	1
0	190513	0.441	1
0	190945	0.442	1
0	191377	0.443	1
0	191809	0.444	1
0	192241	0.445	1
0	192673	0.446	1
0	193105	0.447	1
0	193537	0.448	1
0	193969	0.449	1
0	194401	0.45	1
0	194833	0.451	1
0	195265	0.452	1
0	195697	0.453	1
0	196129	0.454	1
0	196561	0.455	1
0	196993	0.456	1
0	197425	0.457	1
0	197857	0.458	1
0	198289	0.459	1
0	198721	0.46	1
0	199153	0.461	1
0	199585	0.462	1
0	200017	0.463	1
0	200449	0.464	1
0	200881	0.465	1
0	201313	0.466	1
0	201745	0.467	1
0	202177	0.468	1
0	202609	0.469	1
0	203041	0.47	1
0	203473	0.471	1
0	203905	0.472	1
0	204337	0.473	1
0	204769	0.474	1
0	205201	0.475	1
0	205633	0.476	1
0	206065	0.477	1
0	206497	0.478	1
0	206929	0.479	1
0	207361	0.48	1
0	207793	0.481	1
0	208225	0.482	1
0	208657	0.483	1
0	209089	0.484	1
0	209521	0.485	1
0	209953	0.486	1
0	210385	0.487	1
0	210817	0.488	1
0	211249	0.489	1
0	211681	0.49	1
0	212113	0.491	1
0	212545	0.492	1
0	212977	0.493	1
0	213409	0.494	1
0	213841	0.495	1
0	214273	0.496	1
0	214705	0.497	1
0	215137	0.498	1
0	215569	0.499	1
0	216001	0.5	1
0	216433	0.501	1
0	216865	0.502	1
0	217297	0.503	1
0	217729	0.504	1
0	218161	0.505	1
0	218593	0.506	1
0	219025	0.507	1
0	219457	0.508	1
0	219889	0.509	1
0	220321	0.51	1
0	220753	0.511	1
0	221185	0.512	1
0	221617	0.513	1
0	222049	0.514	1
0	222481	0.515	1
0	222913	0.516	1
0	223345	0.517	1
0	223777	0.518	1
0	224209	0.519	1
0	224641	0.52	1
0	225073	0.521	1
0	225505	0.522	1
0	225937	0.523	1
0	226369	0.524	1
0	226801	0.525	1
0	227233	0.526	1
0	227665	0.527	1
0	228097	0.528	1
0	228529	0.529	1
0	228961	0.53	1
0	229393	0.531	1
0	229825	0.532	1
0	230257	0.533	1
0	230689	0.534	1
0	231121	0.535	1
0	231553	0.536	1
0	231985	0.537	1
0	232417	0.538	1
0	232849	0.539	1
0	233281	0.54	1
0	233713	0.541	1
0	234145	0.542	1
0	234577	0.543	1
0	235009	0.544	1
0	235441	0.545	1
0	235873	0.546	1
0	236305	0.547	1
0	236737	0.548	1
0	237169	0.549	1
0	237601	0.55	1
0	238033	0.551	1
0	238465	0.552	1
0	238897	0.553	1
0	239329	0.554	1
0	239761	0.555	1
0	240193	0.556	1
0	240625	0.557	1
0	241057	0.558	1
0	241489	0.559	1
0	241921	0.56	1
0	242353	0.561	1
0	242785	0.562	1
0	243217	0.563	1
0	243649	0.564	1
0	244081	0.565	1
0	244513	0.566	1
0	244945	0.567	1
0	245377	0.568	1
0	245809	0.569	1
0	246241	0.57	1
0	246673	0.571	1
0	247105	0.572	1
0	247537	0.573	1
0	247969	0.574	1
0	248401	0.575	1
0	248833	0.576	1
0	249265	0.577	1
0	249697	0.578	1
0	250129	0.579	1
0	250561	0.58	1
0	250993	0.581	1
0	251425	0.582	1
0	251857	0.583	1
0	252289	0.584	1
0	252721	0.585	1
0	253153	0.586	1
0	253585	0.587	1
0	254017	0.588	1
0	254449	0.589	1
0	254881	0.59	1
0	255313	0.591	1
0	255745	0.592	1
0	256177	0.593	1
0	256609	0.594	1
0	257041	0.595	1
0	257473	0.596	1
0	257905	0.597	1
0	258337	0.598	1
0	258769	0.599	1
0	259201	0.6	1
0	259633	0.601	1
0	260065	0.602	1
0	260497	0.603	1
0	260929	0.604	1
0	261361	0.605	1
0	261793	0.606	1
0	262225	0.607	1
0	262657	0.608	1
0	263089	0.609	1
0	263521	0.61	1
0	263953	0.611	1
0	264385	0.612	1
0	264817	0.613	1
0	265249	0.614	1
0	265681	0.615	1
0	266113	0.616	1
0	266545	0.617	1
0	266977	0.618	1
0	267409	0.619	1
0	267841	0.62	1
0	268273	0.621	1
0	268705	0.622	1
0	269137	0.623	1
0	269569	0.624	1
0	270001	0.625	1
0	270433	0.626	1
0	270865	0.627	1
0	271297	0.628	1
0	271729	0.629	1
0	272161	0.63	1
0	272593	0.631	1
0	273025	0.632	1
0	273457	0.633	1
0	273889	0.634	1
0	274321	0.635	1
0	274753	0.636	1
0	275185	0.637	1
0	275617	0.638	1
0	276049	0.639	1
0	276481	0.64	1
0	276913	0.641	1
0	277345	0.642	1
0	277777	0.643	1
0	278209	0.644	1
0	278641	0.645	1
0	279073	0.646	1
0	279505	0.647	1
0	279937	0.648	1
0	280369	0.649	1
0	280801	0.65	1
0	281233	0.651	1
0	281665	0.652	1
0	282097	0.653	1
0	282529	0.654	1
0	282961	0.655	1
0	283393	0.656	1
0	283825	0.657	1
0	284257	0.658	1
0	284689	0.659	1
0	285121	0.66	1
0	285553	0.661	1
0	285985	0.662	1
0	286417	0.663	1
0	286849	0.664	1
0	287281	0.665	1
0	287713	0.666	1
0	288145	0.667	1
0	288577	0.668	1
0	289009	0.669	1
0	289441	0.67	1
0	289873	0.671	1
0	290305	0.672	1
0	290737	0.673	1
0	291169	0.674	1
0	291601	0.675	1
0	292033	0.676	1
0	292465	0.677	1
0	292897	0.678	1
0	293329	0.679	1
0	293761	0.68	1
0	294193	0.681	1
0	294625	0.682	1
0	295057	0.683	1
0	295489	0.684	1
0	295921	0.685	1
0	296353	0.686	1
0	296785	0.687	1
0	297217	0.688	1
0	297649	0.689	1
0	298081	0.69	1
0	298513	0.691	1
0	298945	0.692	1
0	299377	0.693	1
0	299809	0.694	1
0	300241	0.695	1
0	300673	0.696	1
0	301105	0.697	1
0	301537	0.698	1
0	301969	0.699	1
0	302401	0.7	1
0	302833	0.701	1
0	303265	0.702	1
0	303697	0.703	1
0	304129	0.704	1
0	304561	0.705	1
0	304993	0.706	1
0	305425	0.707	1
0	305857	0.708	1
0	306289	0.709	1
0	306721	0.71	1
0	307153	0.711	1
0	307585	0.712	1
0	308017	0.713	1
0	308449	0.714	1
0	308881	0.715	1
0	309313	0.716	1
0	309745	0.717	1
0	310177	0.718	1
0	310609	0.719	1
0	311041	0.72	1
0	311473	0.721	1
0	311905	0.722	1
0	312337	0.723	1
0	312769	0.724	1
0	313201	0.725	1
0	313633	0.726	1
0	314065	0.727	1
0	314497	0.728	1
0	314929	0.729	1
0	315361	0.73	1
0	315793	0.731	1
0	316225	0.732	1
0	316657	0.733	1
0	317089	0.734	1
0	317521	0.735	1
0	317953	0.736	1
0	318385	0.737	1
0	318817	0.738	1
0	319249	0.739	1
0	319681	0.74	1
0	320113	0.741	1
0	320545	0.742	1
0	320977	0.743	1
0	321409	0.744	1
0	321841	0.745	1
0	322273	0.746	1
0	322705	0.747	1
0	323137	0.748	1
0	323569	0.749	1
0	324001	0.75	1
0	324433	0.751	1
0	324865	0.752	1
0	325297	0.753	1
0	325729	0.754	1
0	326161	0.755	1
0	326593	0.756	1
0	327025	0.757	1
0	327457	0.758	1
0	327889	0.759	1
0	328321	0.76	1
0	328753	0.761	1
0	329185	0.762	1
0	329617	0.763	1
0	330049	0.764	1
0	330481	0.765	1
0	330913	0.766	1
0	331345	0.767	1
0	331777	0.768	1
0	332209	0.769	1
0	332641	0.77	1
0	333073	0.771	1
0	333505	0.772	1
0	333937	0.773	1
0	334369	0.774	1
0	334801	0.775	1
0	335233	0.776	1
0	335665	0.777	1
0	336097	0.778	1
0	336529	0.779	1
0	336961	0.78	1
0	337393	0.781	1
0	337825	0.782	1
0	338257	0.783	1
0	338689	0.784	1
0	339121	0.785	1
0	339553	0.786	1
0	339985	0.787	1
0	340417	0.788	1
0	340849	0.789	1
0	341281	0.79	1
0	341713	0.791	1
0	342145	0.792	1
0	342577	0.793	1
0	343009	0.794	1
0	343441	0.795	1
0	343873	0.796	1
0	344305	0.797	1
0	344737	0.798	1
0	345169	0.799	1
0	345601	0.8	1
0	346033	0.801	1
0	346465	0.802	1
0	346897	0.803	1
0	347329	0.804	1
0	347761	0.805	1
0	348193	0.806	1
0	348625	0.807	1
0	349057	0.808	1
0	349489	0.809	1
0	349921	0.81	1
0	350353	0.811	1
0	350785	0.812	1
0	351217	0.813	1
0	351649	0.814	1
0	352081	0.815	1
0	352513	0.816	1
0	352945	0.817	1
0	353377	0.818	1
0	353809	0.819	1
0	354241	0.82	1
0	354673	0.821	1
0	355105	0.822	1
0	355537	0.823	1
0	355969	0.824	1
0	356401	0.825	1
0	356833	0.826	1
0	357265	0.827	1
0	357697	0.828	1
0	358129	0.829	1
0	358561	0.83	1
0	358993	0.831	1
0	359425	0.832	1
0	359857	0.833	1
0	360289	0.834	1
0	360721	0.835	1
0	361153	0.836	1
0	361585	0.837	1
0	362017	0.838	1
0	362449	0.839	1
0	362881	0.84	1
0	363313	0.841	1
0	363745	0.842	1
0	364177	0.843	1
0	364609	0.844	1
0	365041	0.845	1
0	365473	0.846	1
0	365905	0.847	1
0	366337	0.848	1
0	366769	0.849	1
0	367201	0.85	1
0	367633	0.851	1
0	368065	0.852	1
0	368497	0.853	1
0	368929	0.854	1
0	369361	0.855	1
0	369793	0.856	1
0	370225	0.857	1
0	370657	0.858	1
0	371089	0.859	1
0	371521	0.86	1
0	371953	0.861	1
0	372385	0.862	1
0	372817	0.863	1
0	373249	0.864	1
0	373681	0.865	1
0	374113	0.866	1
0	374545	0.867	1
0	374977	0.868	1
0	375409	0.869	1
0	375841	0.87	1
0	376273	0.871	1
0	376705	0.872	1
0	377137	0.873	1
0	377569	0.874	1
0	378001	0.875	1
0	378433	0.876	1
0	378865	0.877	1
0	379297	0.878	1
0	379729	0.879	1
0	380161	0.88	1
0	380593	0.881	1
0	381025	0.882	1
0	381457	0.883	1
0	381889	0.884	1
0	382321	0.885	1
0	382753	0.886	1
0	383185	0.887	1
0	383617	0.888	1
0	384049	0.889	1
0	384481	0.89	1
0	384913	0.891	1
0	385345	0.892	1
0	385777	0.893	1
0	386209	0.894	1
0	386641	0.895	1
0	387073	0.896	1
0	387505	0.897	1
0	387937	0.898	1
0	388369	0.899	1
0	388801	0.9	1
0	389233	0.901	1
0	389665	0.902	1
0	390097	0.903	1
0	390529	0.904	1
0	390961	0.905	1
0	391393	0.906	1
0	391825	0.907	1
0	392257	0.908	1
0	392689	0.909	1
0	393121	0.91	1
0	393553	0.911	1
0	393985	0.912	1
0	394417	0.913	1
0	394849	0.914	1
0	395281	0.915	1
0	395713	0.916	1
0	396145	0.917	1
0	396577	0.918	1
0	397009	0.919	1
0	397441	0.92	1
0	397873	0.921	1
0	398305	0.922	1
0	398737	0.923	1
0	399169	0.924	1
0	399601	0.925	1
0	400033	0.926	1
0	400465	0.927	1
0	400897	0.928	1
0	401329	0.929	1
0	401761	0.93	1
0	402193	0.931	1
0	402625	0.932	1
0	403057	0.933	1
0	403489	0.934	1
0	403921	0.935	1
0	404353	0.936	1
0	404785	0.937	1
0	405217	0.938	1
0	405649	0.939	1
0	406081	0.94	1
0	406513	0.941	1
0	406945	0.942	1
0	407377	0.943	1
0	407809	0.944	1
0	408241	0.945	1
0	408673	0.946	1
0	409105	0.947	1
0	409537	0.948	1
0	409969	0.949	1
0	410401	0.95	1
0	410833	0.951	1
0	411265	0.952	1
0	411697	0.953	1
0	412129	0.954	1
0	412561	0.955	1
0	412993	0.956	1
0	413425	0.957	1
0	413857	0.958	1
0	414289	0.959	1
0	414721	0.96	1
0	415153	0.961	1
0	415585	0.962	1
0	416017	0.963	1
0	416449	0.964	1
0	416881	0.965	1
0	417313	0.966	1
0	417745	0.967	1
0	418177	0.968	1
0	418609	0.969	1
0	419041	0.97	1
0	419473	0.971	1
0	419905	0.972	1
0	420337	0.973	1
0	420769	0.974	1
0	421201	0.975	1
0	421633	0.976	1
0	422065	0.977	1
0	422497	0.978	1
0	422929	0.979	1
0	423361	0.98	1
0	423793	0.981	1
0	424225	0.982	1
0	424657	0.983	1
0	425089	0.984	1
0	425521	0.985	1
0	425953	0.986	1
0	426385	0.987	1
0	426817	0.988	1
0	427249	0.989	1
0	427681	0.99	1
0	428113	0.991	1
0	428545	0.992	1
0	428977	0.993	1
0	429409	0.994	1
0	429841	0.995	1
0	430273	0.996	1
0	430705	0.997	1
0	431137	0.998	1
0	431569	0.999	1
1	7	0	2
1	434	0.001	2
1	866	0.002	2
1	1298	0.003	2
1	1730	0.004	2
1	2162	0.005	2
1	2594	0.006	2
1	3026	0.007	2
1	3458	0.008	2
1	3890	0.009	2
1	4322	0.01	2
1	4754	0.011	2
1	5186	0.012	2
1	5618	0.013	2
1	6050	0.014	2
1	6482	0.015	2
1	6914	0.016	2
1	7346	0.017	2
1	7778	0.018	2
1	8210	0.019	2
1	8642	0.02	2
1	9074	0.021	2
1	9506	0.022	2
1	9938	0.023	2
1	10370	0.024	2
1	10802	0.025	2
1	11234	0.026	2
1	11666	0.027	2
1	12098	0.028	2
1	12530	0.029	2
1	12962	0.03	2
1	13394	0.031	2
1	13826	0.032	2
1	14258	0.033	2
1	14690	0.034	2
1	15122	0.035	2
1	15554	0.036	2
1	15986	0.037	2
1	16418	0.038	2
1	16850	0.039	2
1	17282	0.04	2
1	17714	0.041	2
1	18146	0.042	2
1	18578	0.043	2
1	19010	0.044	2
1	19442	0.045	2
1	19874	0.046	2
1	20306	0.047	2
1	20738	0.048	2
1	21170	0.049	2
1	21602	0.05	2
1	22034	0.051	2
1	22466	0.052	2
1	22898	0.053	2
1	23330	0.054	2
1	23762	0.055	2
1	24194	0.056	2
1	24626	0.057	2
1	25058	0.058	2
1	25490	0.059	2
1	25922	0.06	2
1	26354	0.061	2
1	26786	0.062	2
1	27218	0.063	2
1	27650	0.064	2
1	28082	0.065	2
1	28514	0.066	2
1	28946	0.067	2
1	29378	0.068	2
1	29810	0.069	2
1	30242	0.07	2
1	30674	0.071	2
1	31106	0.072	2
1	31538	0.073	2
1	31970	0.074	2
1	32402	0.075	2
1	32834	0.076	2
1	33266	0.077	2
1	33698	0.078	2
1	34130	0.079	2
1	34562	0.08	2
1	34994	0.081	2
1	35426	0.082	2
1	35858	0.083	2
1	36290	0.084	2
1	36722	0.085	2
1	37154	0.086	2
1	37586	0.087	2
1	38018	0.088	2
1	38450	0.089	2
1	38882	0.09	2
1	39314	0.091	2
1	39746	0.092	2
1	40178	0.093	2
1	40610	0.094	2
1	41042	0.095	2
1	41474	0.096	2
1	41906	0.097	2
1	42338	0.098	2
1	42770	0.099	2
1	43202	0.1	2
1	43634	0.101	2
1	44066	0.102	2
1	44498	0.103	2
1	44930	0.104	2
1	45362	0.105	2
1	45794	0.106	2
1	46226	0.107	2
1	46658	0.108	2
1	47090	0.109	2
1	47522	0.11	2
1	47954	0.111	2
1	48386	0.112	2
1	48818	0.113	2
1	49250	0.114	2
1	49682	0.115	2
1	50114	0.116	2
1	50546	0.117	2
1	50978	0.118	2
1	51410	0.119	2
1	51842	0.12	2
1	52274	0.121	2
1	52706	0.122	2
1	53138	0.123	2
1	53570	0.124	2
1	54002	0.125	2
1	54434	0.126	2
1	54866	0.127	2
1	55298	0.128	2
1	55730	0.129	2
1	56162	0.13	2
1	56594	0.131	2
1	57026	0.132	2
1	57458	0.133	2
1	57890	0.134	2
1	58322	0.135	2
1	58754	0.136	2
1	59186	0.137	2
1	59618	0.138	2
1	60050	0.139	2
1	60482	0.14	2
1	60914	0.141	2
1	61346	0.142	2
1	61778	0.143	2
1	62210	0.144	2
1	62642	0.145	2
1	63074	0.146	2
1	63506	0.147	2
1	63938	0.148	2
1	64370	0.149	2
1	64802	0.15	2
1	65234	0.151	2
1	65666	0.152	2
1	66098	0.153	2
1	66530	0.154	2
1	66962	0.155	2
1	67394	0.156	2
1	67826	0.157	2
1	68258	0.158	2
1	68690	0.159	2
1	69122	0.16	2
1	69554	0.161	2
1	69986	0.162	2
1	70418	0.163	2
1	70850	0.164	2
1	71282	0.165	2
1	71714	0.166	2
1	72146	0.167	2
1	72578	0.168	2
1	73010	0.169	2
1	73442	0.17	2
1	73874	0.171	2
1	74306	0.172	2
1	74738	0.173	2
1	75170	0.174	2
1	75602	0.175	2
1	76034	0.176	2
1	76466	0.177	2
1	76898	0.178	2
1	77330	0.179	2
1	77762	0.18	2
1	78194	0.181	2
1	78626	0.182	2
1	79058	0.183	2
1	79490	0.184	2
1	79922	0.185	2
1	80354	0.186	2
1	80786	0.187	2
1	81218	0.188	2
1	81650	0.189	2
1	82082	0.19	2
1	82514	0.191	2
1	82946	0.192	2
1	83378	0.193	2
1	83810	0.194	2
1	84242	0.195	2
1	84674	0.196	2
1	85106	0.197	2
1	85538	0.198	2
1	85970	0.199	2
1	86402	0.2	2
1	86834	0.201	2
1	87266	0.202	2
1	87698	0.203	2
1	88130	0.204	2
1	88562	0.205	2
1	88994	0.206	2
1	89426	0.207	2
1	89858	0.208	2
1	90290	0.209	2
1	90722	0.21	2
1	91154	0.211	2
1	91586	0.212	2
1	92018	0.213	2
1	92450	0.214	2
1	92882	0.215	2
1	93314	0.216	2
1	93746	0.217	2
1	94178	0.218	2
1	94610	0.219	2
1	95042	0.22	2
1	95474	0.221	2
1	95906	0.222	2
1	96338	0.223	2
1	96770	0.224	2
1	97202	0.225	2
1	97634	0.226	2
1	98066	0.227	2
1	98498	0.228	2
1	98930	0.229	2
1	99362	0.23	2
1	99794	0.231	2
1	100226	0.232	2
1	100658	0.233	2
1	101090	0.234	2
1	101522	0.235	2
1	101954	0.236	2
1	102386	0.237	2
1	102818	0.238	2
1	103250	0.239	2
1	103682	0.24	2
1	104114	0.241	2
1	104546	0.242	2
1	104978	0.243	2
1	105410	0.244	2
1	105842	0.245	2
1	106274	0.246	2
1	106706	0.247	2
1	107138	0.248	2
1	107570	0.249	2
1	108002	0.25	2
1	108434	0.251	2
1	108866	0.252	2
1	109298	0.253	2
1	109730	0.254	2
1	110162	0.255	2
1	110594	0.256	2
1	111026	0.257	2
1	111458	0.258	2
1	111890	0.259	2
1	112322	0.26	2
1	112754	0.261	2
1	113186	0.262	2
1	113618	0.263	2
1	114050	0.264	2
1	114482	0.265	2
1	114914	0.266	2
1	115346	0.267	2
1	115778	0.268	2
1	116210	0.269	2
1	116642	0.27	2
1	117074	0.271	2
1	117506	0.272	2
1	117938	0.273	2
1	118370	0.274	2
1	118802	0.275	2
1	119234	0.276	2
1	119666	0.277	2
1	120098	0.278	2
1	120530	0.279	2
1	120962	0.28	2
1	121394	0.281	2
1	121826	0.282	2
1	122258	0.283	2
1	122690	0.284	2
1	123122	0.285	2
1	123554	0.286	2
1	123986	0.287	2
1	124418	0.288	2
1	124850	0.289	2
1	125282	0.29	2
1	125714	0.291	2
1	126146	0.292	2
1	126578	0.293	2
1	127010	0.294	2
1	127442	0.295	2
1	127874	0.296	2
1	128306	0.297	2
1	128738	0.298	2
1	129170	0.299	2
1	129602	0.3	2
1	130034	0.301	2
1	130466	0.302	2
1	130898	0.303	2
1	131330	0.304	2
1	131762	0.305	2
1	132194	0.306	2
1	132626	0.307	2
1	133058	0.308	2
1	133490	0.309	2
1	133922	0.31	2
1	134354	0.311	2
1	134786	0.312	2
1	135218	0.313	2
1	135650	0.314	2
1	136082	0.315	2
1	136514	0.316	2
1	136946	0.317	2
1	137378	0.318	2
1	137810	0.319	2
1	138242	0.32	2
1	138674	0.321	2
1	139106	0.322	2
1	139538	0.323	2
1	139970	0.324	2
1	140402	0.325	2
1	140834	0.326	2
1	141266	0.327	2
1	141698	0.328	2
1	142130	0.329	2
1	142562	0.33	2
1	142994	0.331	2
1	143426	0.332	2
1	143858	0.333	2
1	144290	0.334	2
1	144722	0.335	2
1	145154	0.336	2
1	145586	0.337	2
1	146018	0.338	2
1	146450	0.339	2
1	146882	0.34	2
1	147314	0.341	2
1	147746	0.342	2
1	148178	0.343	2
1	148610	0.344	2
1	149042	0.345	2
1	149474	0.346	2
1	149906	0.347	2
1	150338	0.348	2
1	150770	0.349	2
1	151202	0.35	2
1	151634	0.351	2
1	152066	0.352	2
1	152498	0.353	2
1	152930	0.354	2
1	153362	0.355	2
1	153794	0.356	2
1	154226	0.357	2
1	154658	0.358	2
1	155090	0.359	2
1	155522	0.36	2
1	155954	0.361	2
1	156386	0.362	2
1	156818	0.363	2
1	157250	0.364	2
1	157682	0.365	2
1	158114	0.366	2
1	158546	0.367	2
1	158978	0.368	2
1	159410	0.369	2
1	159842	0.37	2
1	160274	0.371	2
1	160706	0.372	2
1	161138	0.373	2
1	161570	0.374	2
1	162002	0.375	2
1	162434	0.376	2
1	162866	0.377	2
1	163298	0.378	2
1	163730	0.379	2
1	164162	0.38	2
1	164594	0.381	2
1	165026	0.382	2
1	165458	0.383	2
1	165890	0.384	2
1	166322	0.385	2
1	166754	0.386	2
1	167186	0.387	2
1	167618	0.388	2
1	168050	0.389	2
1	168482	0.39	2
1	168914	0.391	2
1	169346	0.392	2
1	169778	0.393	2
1	170210	0.394	2
1	170642	0.395	2
1	171074	0.396	2
1	171506	0.397	2
1	171938	0.398	2
1	172370	0.399	2
1	172802	0.4	2
1	173234	0.401	2
1	173666	0.402	2
1	174098	0.403	2
1	174530	0.404	2
1	174962	0.405	2
1	175394	0.406	2
1	175826	0.407	2
1	176258	0.408	2
1	176690	0.409	2
1	177122	0.41	2
1	177554	0.411	2
1	177986	0.412	2
1	178418	0.413	2
1	178850	0.414	2
1	179282	0.415	2
1	179714	0.416	2
1	180146	0.417	2
1	180578	0.418	2
1	181010	0.419	2
1	181442	0.42	2
1	181874	0.421	2
1	182306	0.422	2
1	182738	0.423	2
1	183170	0.424	2
1	183602	0.425	2
1	184034	0.426	2
1	184466	0.427	2
1	184898	0.428	2
1	185330	0.429	2
1	185762	0.43	2
1	186194	0.431	2
1	186626	0.432	2
1	187058	0.433	2
1	187490	0.434	2
1	187922	0.435	2
1	188354	0.436	2
1	188786	0.437	2
1	189218	0.438	2
1	189650	0.439	2
1	190082	0.44	2
1	190514	0.441	2
1	190946	0.442	2
1	191378	0.443	2
1	191810	0.444	2
1	192242	0.445	2
1	192674	0.446	2
1	193106	0.447	2
1	193538	0.448	2
1	193970	0.449	2
1	194402	0.45	2
1	194834	0.451	2
1	195266	0.452	2
1	195698	0.453	2
1	196130	0.454	2
1	196562	0.455	2
1	196994	0.456	2
1	197426	0.457	2
1	197858	0.458	2
1	198290	0.459	2
1	198722	0.46	2
1	199154	0.461	2
1	199586	0.462	2
1	200018	0.463	2
1	200450	0.464	2
1	200882	0.465	2
1	201314	0.466	2
1	201746	0.467	2
1	202178	0.468	2
1	202610	0.469	2
1	203042	0.47	2
1	203474	0.471	2
1	203906	0.472	2
1	204338	0.473	2
1	204770	0.474	2
1	205202	0.475	2
1	205634	0.476	2
1	206066	0.477	2
1	206498	0.478	2
1	206930	0.479	2
1	207362	0.48	2
1	207794	0.481	2
1	208226	0.482	2
1	208658	0.483	2
1	209090	0.484	2
1	209522	0.485	2
1	209954	0.486	2
1	210386	0.487	2
1	210818	0.488	2
1	211250	0.489	2
1	211682	0.49	2
1	212114	0.491	2
1	212546	0.492	2
1	212978	0.493	2
1	213410	0.494	2
1	213842	0.495	2
1	214274	0.496	2
1	214706	0.497	2
1	215138	0.498	2
1	215570	0.499	2
1	216002	0.5	2
1	216434	0.501	2
1	216866	0.502	2
1	217298	0.503	2
1	217730	0.504	2
1	218162	0.505	2
1	218594	0.506	2
1	219026	0.507	2
1	219458	0.508	2
1	219890	0.509	2
1	220322	0.51	2
1	220754	0.511	2
1	221186	0.512	2
1	221618	0.513	2
1	222050	0.514	2
1	222482	0.515	2
1	222914	0.516	2
1	223346	0.517	2
1	223778	0.518	2
1	224210	0.519	2
1	224642	0.52	2
1	225074	0.521	2
1	225506	0.522	2
1	225938	0.523	2
1	226370	0.524	2
1	226802	0.525	2
1	227234	0.526	2
1	227666	0.527	2
1	228098	0.528	2
1	228530	0.529	2
1	228962	0.53	2
1	229394	0.531	2
1	229826	0.532	2
1	230258	0.533	2
1	230690	0.534	2
1	231122	0.535	2
1	231554	0.536	2
1	231986	0.537	2
1	232418	0.538	2
1	232850	0.539	2
1	233282	0.54	2
1	233714	0.541	2
1	234146	0.542	2
1	234578	0.543	2
1	235010	0.544	2
1	235442	0.545	2
1	235874	0.546	2
1	236306	0.547	2
1	236738	0.548	2
1	237170	0.549	2
1	237602	0.55	2
1	238034	0.551	2
1	238466	0.552	2
1	238898	0.553	2
1	239330	0.554	2
1	239762	0.555	2
1	240194	0.556	2
1	240626	0.557	2
1	241058	0.558	2
1	241490	0.559	2
1	241922	0.56	2
1	242354	0.561	2
1	242786	0.562	2
1	243218	0.563	2
1	243650	0.564	2
1	244082	0.565	2
1	244514	0.566	2
1	244946	0.567	2
1	245378	0.568	2
1	245810	0.569	2
1	246242	0.57	2
1	246674	0.571	2
1	247106	0.572	2
1	247538	0.573	2
1	247970	0.574	2
1	248402	0.575	2
1	248834	0.576	2
1	249266	0.577	2
1	249698	0.578	2
1	250130	0.579	2
1	250562	0.58	2
1	250994	0.581	2
1	251426	0.582	2
1	251858	0.583	2
1	252290	0.584	2
1	252722	0.585	2
1	253154	0.586	2
1	253586	0.587	2
1	254018	0.588	2
1	254450	0.589	2
1	254882	0.59	2
1	255314	0.591	2
1	255746	0.592	2
1	256178	0.593	2
1	256610	0.594	2
1	257042	0.595	2
1	257474	0.596	2
1	257906	0.597	2
1	258338	0.598	2
1	258770	0.599	2
1	259202	0.6	2
1	259634	0.601	2
1	260066	0.602	2
1	260498	0.603	2
1	260930	0.604	2
1	261362	0.605	2
1	261794	0.606	2
1	262226	0.607	2
1	262658	0.608	2
1	263090	0.609	2
1	263522	0.61	2
1	263954	0.611	2
1	264386	0.612	2
1	264818	0.613	2
1	265250	0.614	2
1	265682	0.615	2
1	266114	0.616	2
1	266546	0.617	2
1	266978	0.618	2
1	267410	0.619	2
1	267842	0.62	2
1	268274	0.621	2
1	268706	0.622	2
1	269138	0.623	2
1	269570	0.624	2
1	270002	0.625	2
1	270434	0.626	2
1	270866	0.627	2
1	271298	0.628	2
1	271730	0.629	2
1	272162	0.63	2
1	272594	0.631	2
1	273026	0.632	2
1	273458	0.633	2
1	273890	0.634	2
1	274322	0.635	2
1	274754	0.636	2
1	275186	0.637	2
1	275618	0.638	2
1	276050	0.639	2
1	276482	0.64	2
1	276914	0.641	2
1	277346	0.642	2
1	277778	0.643	2
1	278210	0.644	2
1	278642	0.645	2
1	279074	0.646	2
1	279506	0.647	2
1	279938	0.648	2
1	280370	0.649	2
1	280802	0.65	2
1	281234	0.651	2
1	281666	0.652	2
1	282098	0.653	2
1	282530	0.654	2
1	282962	0.655	2
1	283394	0.656	2
1	283826	0.657	2
1	284258	0.658	2
1	284690	0.659	2
1	285122	0.66	2
1	285554	0.661	2
1	285986	0.662	2
1	286418	0.663	2
1	286850	0.664	2
1	287282	0.665	2
1	287714	0.666	2
1	288146	0.667	2
1	288578	0.668	2
1	289010	0.669	2
1	289442	0.67	2
1	289874	0.671	2
1	290306	0.672	2
1	290738	0.673	2
1	291170	0.674	2
1	291602	0.675	2
1	292034	0.676	2
1	292466	0.677	2
1	292898	0.678	2
1	293330	0.679	2
1	293762	0.68	2
1	294194	0.681	2
1	294626	0.682	2
1	295058	0.683	2
1	295490	0.684	2
1	295922	0.685	2
1	296354	0.686	2
1	296786	0.687	2
1	297218	0.688	2
1	297650	0.689	2
1	298082	0.69	2
1	298514	0.691	2
1	298946	0.692	2
1	299378	0.693	2
1	299810	0.694	2
1	300242	0.695	2
1	300674	0.696	2
1	301106	0.697	2
1	301538	0.698	2
1	301970	0.699	2
1	302402	0.7	2
1	302834	0.701	2
1	303266	0.702	2
1	303698	0.703	2
1	304130	0.704	2
1	304562	0.705	2
1	304994	0.706	2
1	305426	0.707	2
1	305858	0.708	2
1	306290	0.709	2
1	306722	0.71	2
1	307154	0.711	2
1	307586	0.712	2
1	308018	0.713	2
1	308450	0.714	2
1	308882	0.715	2
1	309314	0.716	2
1	309746	0.717	2
1	310178	0.718	2
1	310610	0.719	2
1	311042	0.72	2
1	311474	0.721	2
1	311906	0.722	2
1	312338	0.723	2
1	312770	0.724	2
1	313202	0.725	2
1	313634	0.726	2
1	314066	0.727	2
1	314498	0.728	2
1	314930	0.729	2
1	315362	0.73	2
1	315794	0.731	2
1	316226	0.732	2
1	316658	0.733	2
1	317090	0.734	2
1	317522	0.735	2
1	317954	0.736	2
1	318386	0.737	2
1	318818	0.738	2
1	319250	0.739	2
1	319682	0.74	2
1	320114	0.741	2
1	320546	0.742	2
1	320978	0.743	2
1	321410	0.744	2
1	321842	0.745	2
1	322274	0.746	2
1	322706	0.747	2
1	323138	0.748	2
1	323570	0.749	2
1	324002	0.75	2
1	324434	0.751	2
1	324866	0.752	2
1	325298	0.753	2
1	325730	0.754	2
1	326162	0.755	2
1	326594	0.756	2
1	327026	0.757	2
1	327458	0.758	2
1	327890	0.759	2
1	328322	0.76	2
1	328754	0.761	2
1	329186	0.762	2
1	329618	0.763	2
1	330050	0.764	2
1	330482	0.765	2
1	330914	0.766	2
1	331346	0.767	2
1	331778	0.768	2
1	332210	0.769	2
1	332642	0.77	2
1	333074	0.771	2
1	333506	0.772	2
1	333938	0.773	2
1	334370	0.774	2
1	334802	0.775	2
1	335234	0.776	2
1	335666	0.777	2
1	336098	0.778	2
1	336530	0.779	2
1	336962	0.78	2
1	337394	0.781	2
1	337826	0.782	2
1	338258	0.783	2
1	338690	0.784	2
1	339122	0.785	2
1	339554	0.786	2
1	339986	0.787	2
1	340418	0.788	2
1	340850	0.789	2
1	341282	0.79	2
1	341714	0.791	2
1	342146	0.792	2
1	342578	0.793	2
1	343010	0.794	2
1	343442	0.795	2
1	343874	0.796	2
1	344306	0.797	2
1	344738	0.798	2
1	345170	0.799	2
1	345602	0.8	2
1	346034	0.801	2
1	346466	0.802	2
1	346898	0.803	2
1	347330	0.804	2
1	347762	0.805	2
1	348194	0.806	2
1	348626	0.807	2
1	349058	0.808	2
1	349490	0.809	2
1	349922	0.81	2
1	350354	0.811	2
1	350786	0.812	2
1	351218	0.813	2
1	351650	0.814	2
1	352082	0.815	2
1	352514	0.816	2
1	352946	0.817	2
1	353378	0.818	2
1	353810	0.819	2
1	354242	0.82	2
1	354674	0.821	2
1	355106	0.822	2
1	355538	0.823	2
1	355970	0.824	2
1	356402	0.825	2
1	356834	0.826	2
1	357266	0.827	2
1	357698	0.828	2
1	358130	0.829	2
1	358562	0.83	2
1	358994	0.831	2
1	359426	0.832	2
1	359858	0.833	2
1	360290	0.834	2
1	360722	0.835	2
1	361154	0.836	2
1	361586	0.837	2
1	362018	0.838	2
1	362450	0.839	2
1	362882	0.84	2
1	363314	0.841	2
1	363746	0.842	2
1	364178	0.843	2
1	364610	0.844	2
1	365042	0.845	2
1	365474	0.846	2
1	365906	0.847	2
1	366338	0.848	2
1	366770	0.849	2
1	367202	0.85	2
1	367634	0.851	2
1	368066	0.852	2
1	368498	0.853	2
1	368930	0.854	2
1	369362	0.855	2
1	369794	0.856	2
1	370226	0.857	2
1	370658	0.858	2
1	371090	0.859	2
1	371522	0.86	2
1	371954	0.861	2
1	372386	0.862	2
1	372818	0.863	2
1	373250	0.864	2
1	373682	0.865	2
1	374114	0.866	2
1	374546	0.867	2
1	374978	0.868	2
1	375410	0.869	2
1	375842	0.87	2
1	376274	0.871	2
1	376706	0.872	2
1	377138	0.873	2
1	377570	0.874	2
1	378002	0.875	2
1	378434	0.876	2
1	378866	0.877	2
1	379298	0.878	2
1	379730	0.879	2
1	380162	0.88	2
1	380594	0.881	2
1	381026	0.882	2
1	381458	0.883	2
1	381890	0.884	2
1	382322	0.885	2
1	382754	0.886	2
1	383186	0.887	2
1	383618	0.888	2
1	384050	0.889	2
1	384482	0.89	2
1	384914	0.891	2
1	385346	0.892	2
1	385778	0.893	2
1	386210	0.894	2
1	386642	0.895	2
1	387074	0.896	2
1	387506	0.897	2
1	387938	0.898	2
1	388370	0.899	2
1	388802	0.9	2
1	389234	0.901	2
1	389666	0.902	2
1	390098	0.903	2
1	390530	0.904	2
1	390962	0.905	2
1	391394	0.906	2
1	391826	0.907	2
1	392258	0.908	2
1	392690	0.909	2
1	393122	0.91	2
1	393554	0.911	2
1	393986	0.912	2
1	394418	0.913	2
1	394850	0.914	2
1	395282	0.915	2
1	395714	0.916	2
1	396146	0.917	2
1	396578	0.918	2
1	397010	0.919	2
1	397442	0.92	2
1	397874	0.921	2
1	398306	0.922	2
1	398738	0.923	2
1	399170	0.924	2
1	399602	0.925	2
1	400034	0.926	2
1	400466	0.927	2
1	400898	0.928	2
1	401330	0.929	2
1	401762	0.93	2
1	402194	0.931	2
1	402626	0.932	2
1	403058	0.933	2
1	403490	0.934	2
1	403922	0.935	2
1	404354	0.936	2
1	404786	0.937	2
1	405218	0.938	2
1	405650	0.939	2
1	406082	0.94	2
1	406514	0.941	2
1	406946	0.942	2
1	407378	0.943	2
1	407810	0.944	2
1	408242	0.945	2
1	408674	0.946	2
1	409106	0.947	2
1	409538	0.948	2
1	409970	0.949	2
1	410402	0.95	2
1	410834	0.951	2
1	411266	0.952	2
1	411698	0.953	2
1	412130	0.954	2
1	412562	0.955	2
1	412994	0.956	2
1	413426	0.957	2
1	413858	0.958	2
1	414290	0.959	2
1	414722	0.96	2
1	415154	0.961	2
1	415586	0.962	2
1	416018	0.963	2
1	416450	0.964	2
1	416882	0.965	2
1	417314	0.966	2
1	417746	0.967	2
1	418178	0.968	2
1	418610	0.969	2
1	419042	0.97	2
1	419474	0.971	2
1	419906	0.972	2
1	420338	0.973	2
1	420770	0.974	2
1	421202	0.975	2
1	421634	0.976	2
1	422066	0.977	2
1	422498	0.978	2
1	422930	0.979	2
1	423362	0.98	2
1	423794	0.981	2
1	424226	0.982	2
1	424658	0.983	2
1	425090	0.984	2
1	425522	0.985	2
1	425954	0.986	2
1	426386	0.987	2
1	426818	0.988	2
1	427250	0.989	2
1	427682	0.99	2
1	428114	0.991	2
1	428546	0.992	2
1	428978	0.993	2
1	429410	0.994	2
1	429842	0.995	2
1	430274	0.996	2
1	430706	0.997	2
1	431138	0.998	2
1	431570	0.999	2
2	8	0	3
2	435	0.001	3
2	867	0.002	3
2	1299	0.003	3
2	1731	0.004	3
2	2163	0.005	3
2	2595	0.006	3
2	3027	0.007	3
2	3459	0.008	3
2	3891	0.009	3
2	4323	0.01	3
2	4755	0.011	3
2	5187	0.012	3
2	5619	0.013	3
2	6051	0.014	3
2	6483	0.015	3
2	6915	0.016	3
2	7347	0.017	3
2	7779	0.018	3
2	8211	0.019	3
2	8643	0.02	3
2	9075	0.021	3
2	9507	0.022	3
2	9939	0.023	3
2	10371	0.024	3
2	10803	0.025	3
2	11235	0.026	3
2	11667	0.027	3
2	12099	0.028	3
2	12531	0.029	3
2	12963	0.03	3
2	13395	0.031	3
2	13827	0.032	3
2	14259	0.033	3
2	14691	0.034	3
2	15123	0.035	3
2	15555	0.036	3
2	15987	0.037	3
2	16419	0.038	3
2	16851	0.039	3
2	17283	0.04	3
2	17715	0.041	3
2	18147	0.042	3
2	18579	0.043	3
2	19011	0.044	3
2	19443	0.045	3
2	19875	0.046	3
2	20307	0.047	3
2	20739	0.048	3
2	21171	0.049	3
2	21603	0.05	3
2	22035	0.051	3
2	22467	0.052	3
2	22899	0.053	3
2	23331	0.054	3
2	23763	0.055	3
2	24195	0.056	3
2	24627	0.057	3
2	25059	0.058	3
2	25491	0.059	3
2	25923	0.06	3
2	26355	0.061	3
2	26787	0.062	3
2	27219	0.063	3
2	27651	0.064	3
2	28083	0.065	3
2	28515	0.066	3
2	28947	0.067	3
2	29379	0.068	3
2	29811	0.069	3
2	30243	0.07	3
2	30675	0.071	3
2	31107	0.072	3
2	31539	0.073	3
2	31971	0.074	3
2	32403	0.075	3
2	32835	0.076	3
2	33267	0.077	3
2	33699	0.078	3
2	34131	0.079	3
2	34563	0.08	3
2	34995	0.081	3
2	35427	0.082	3
2	35859	0.083	3
2	36291	0.084	3
2	36723	0.085	3
2	37155	0.086	3
2	37587	0.087	3
2	38019	0.088	3
2	38451	0.089	3
2	38883	0.09	3
2	39315	0.091	3
2	39747	0.092	3
2	40179	0.093	3
2	40611	0.094	3
2	41043	0.095	3
2	41475	0.096	3
2	41907	0.097	3
2	42339	0.098	3
2	42771	0.099	3
2	43203	0.1	3
2	43635	0.101	3
2	44067	0.102	3
2	44499	0.103	3
2	44931	0.104	3
2	45363	0.105	3
2	45795	0.106	3
2	46227	0.107	3
2	46659	0.108	3
2	47091	0.109	3
2	47523	0.11	3
2	47955	0.111	3
2	48387	0.112	3
2	48819	0.113	3
2	49251	0.114	3
2	49683	0.115	3
2	50115	0.116	3
2	50547	0.117	3
2	50979	0.118	3
2	51411	0.119	3
2	51843	0.12	3
2	52275	0.121	3
2	52707	0.122	3
2	53139	0.123	3
2	53571	0.124	3
2	54003	0.125	3
2	54435	0.126	3
2	54867	0.127	3
2	55299	0.128	3
2	55731	0.129	3
2	56163	0.13	3
2	56595	0.131	3
2	57027	0.132	3
2	57459	0.133	3
2	57891	0.134	3
2	58323	0.135	3
2	58755	0.136	3
2	59187	0.137	3
2	59619	0.138	3
2	60051	0.139	3
2	60483	0.14	3
2	60915	0.141	3
2	61347	0.142	3
2	61779	0.143	3
2	62211	0.144	3
2	62643	0.145	3
2	63075	0.146	3
2	63507	0.147	3
2	63939	0.148	3
2	64371	0.149	3
2	64803	0.15	3
2	65235	0.151	3
2	65667	0.152	3
2	66099	0.153	3
2	66531	0.154	3
2	66963	0.155	3
2	67395	0.156	3
2	67827	0.157	3
2	68259	0.158	3
2	68691	0.159	3
2	69123	0.16	3
2	69555	0.161	3
2	69987	0.162	3
2	70419	0.163	3
2	70851	0.164	3
2	71283	0.165	3
2	71715	0.166	3
2	72147	0.167	3
2	72579	0.168	3
2	73011	0.169	3
2	73443	0.17	3
2	73875	0.171	3
2	74307	0.172	3
2	74739	0.173	3
2	75171	0.174	3
2	75603	0.175	3
2	76035	0.176	3
2	76467	0.177	3
2	76899	0.178	3
2	77331	0.179	3
2	77763	0.18	3
2	78195	0.181	3
2	78627	0.182	3
2	79059	0.183	3
2	79491	0.184	3
2	79923	0.185	3
2	80355	0.186	3
2	80787	0.187	3
2	81219	0.188	3
2	81651	0.189	3
2	82083	0.19	3
2	82515	0.191	3
2	82947	0.192	3
2	83379	0.193	3
2	83811	0.194	3
2	84243	0.195	3
2	84675	0.196	3
2	85107	0.197	3
2	85539	0.198	3
2	85971	0.199	3
2	86403	0.2	3
2	86835	0.201	3
2	87267	0.202	3
2	87699	0.203	3
2	88131	0.204	3
2	88563	0.205	3
2	88995	0.206	3
2	89427	0.207	3
2	89859	0.208	3
2	90291	0.209	3
2	90723	0.21	3
2	91155	0.211	3
2	91587	0.212	3
2	92019	0.213	3
2	92451	0.214	3
2	92883	0.215	3
2	93315	0.216	3
2	93747	0.217	3
2	94179	0.218	3
2	94611	0.219	3
2	95043	0.22	3
2	95475	0.221	3
2	95907	0.222	3
2	96339	0.223	3
2	96771	0.224	3
2	97203	0.225	3
2	97635	0.226	3
2	98067	0.227	3
2	98499	0.228	3
2	98931	0.229	3
2	99363	0.23	3
2	99795	0.231	3
2	100227	0.232	3
2	100659	0.233	3
2	101091	0.234	3
2	101523	0.235	3
2	101955	0.236	3
2	102387	0.237	3
2	102819	0.238	3
2	103251	0.239	3
2	103683	0.24	3
2	104115	0.241	3
2	104547	0.242	3
2	104979	0.243	3
2	105411	0.244	3
2	105843	0.245	3
2	106275	0.246	3
2	106707	0.247	3
2	107139	0.248	3
2	107571	0.249	3
2	108003	0.25	3
2	108435	0.251	3
2	108867	0.252	3
2	109299	0.253	3
2	109731	0.254	3
2	110163	0.255	3
2	110595	0.256	3
2	111027	0.257	3
2	111459	0.258	3
2	111891	0.259	3
2	112323	0.26	3
2	112755	0.261	3
2	113187	0.262	3
2	113619	0.263	3
2	114051	0.264	3
2	114483	0.265	3
2	114915	0.266	3
2	115347	0.267	3
2	115779	0.268	3
2	116211	0.269	3
2	116643	0.27	3
2	117075	0.271	3
2	117507	0.272	3
2	117939	0.273	3
2	118371	0.274	3
2	118803	0.275	3
2	119235	0.276	3
2	119667	0.277	3
2	120099	0.278	3
2	120531	0.279	3
2	120963	0.28	3
2	121395	0.281	3
2	121827	0.282	3
2	122259	0.283	3
2	122691	0.284	3
2	123123	0.285	3
2	123555	0.286	3
2	123987	0.287	3
2	124419	0.288	3
2	124851	0.289	3
2	125283	0.29	3
2	125715	0.291	3
2	126147	0.292	3
2	126579	0.293	3
2	127011	0.294	3
2	127443	0.295	3
2	127875	0.296	3
2	128307	0.297	3
2	128739	0.298	3
2	129171	0.299	3
2	129603	0.3	3
2	130035	0.301	3
2	130467	0.302	3
2	130899	0.303	3
2	131331	0.304	3
2	131763	0.305	3
2	132195	0.306	3
2	132627	0.307	3
2	133059	0.308	3
2	133491	0.309	3
2	133923	0.31	3
2	134355	0.311	3
2	134787	0.312	3
2	135219	0.313	3
2	135651	0.314	3
2	136083	0.315	3
2	136515	0.316	3
2	136947	0.317	3
2	137379	0.318	3
2	137811	0.319	3
2	138243	0.32	3
2	138675	0.321	3
2	139107	0.322	3
2	139539	0.323	3
2	139971	0.324	3
2	140403	0.325	3
2	140835	0.326	3
2	141267	0.327	3
2	141699	0.328	3
2	142131	0.329	3
2	142563	0.33	3
2	142995	0.331	3
2	143427	0.332	3
2	143859	0.333	3
2	144291	0.334	3
2	144723	0.335	3
2	145155	0.336	3
2	145587	0.337	3
2	146019	0.338	3
2	146451	0.339	3
2	146883	0.34	3
2	147315	0.341	3
2	147747	0.342	3
2	148179	0.343	3
2	148611	0.344	3
2	149043	0.345	3
2	149475	0.346	3
2	149907	0.347	3
2	150339	0.348	3
2	150771	0.349	3
2	151203	0.35	3
2	151635	0.351	3
2	152067	0.352	3
2	152499	0.353	3
2	152931	0.354	3
2	153363	0.355	3
2	153795	0.356	3
2	154227	0.357	3
2	154659	0.358	3
2	155091	0.359	3
2	155523	0.36	3
2	155955	0.361	3
2	156387	0.362	3
2	156819	0.363	3
2	157251	0.364	3
2	157683	0.365	3
2	158115	0.366	3
2	158547	0.367	3
2	158979	0.368	3
2	159411	0.369	3
2	159843	0.37	3
2	160275	0.371	3
2	160707	0.372	3
2	161139	0.373	3
2	161571	0.374	3
2	162003	0.375	3
2	162435	0.376	3
2	162867	0.377	3
2	163299	0.378	3
2	163731	0.379	3
2	164163	0.38	3
2	164595	0.381	3
2	165027	0.382	3
2	165459	0.383	3
2	165891	0.384	3
2	166323	0.385	3
2	166755	0.386	3
2	167187	0.387	3
2	167619	0.388	3
2	168051	0.389	3
2	168483	0.39	3
2	168915	0.391	3
2	169347	0.392	3
2	169779	0.393	3
2	170211	0.394	3
2	170643	0.395	3
2	171075	0.396	3
2	171507	0.397	3
2	171939	0.398	3
2	172371	0.399	3
2	172803	0.4	3
2	173235	0.401	3
2	173667	0.402	3
2	174099	0.403	3
2	174531	0.404	3
2	174963	0.405	3
2	175395	0.406	3
2	175827	0.407	3
2	176259	0.408	3
2	176691	0.409	3
2	177123	0.41	3
2	177555	0.411	3
2	177987	0.412	3
2	178419	0.413	3
2	178851	0.414	3
2	179283	0.415	3
2	179715	0.416	3
2	180147	0.417	3
2	180579	0.418	3
2	181011	0.419	3
2	181443	0.42	3
2	181875	0.421	3
2	182307	0.422	3
2	182739	0.423	3
2	183171	0.424	3
2	183603	0.425	3
2	184035	0.426	3
2	184467	0.427	3
2	184899	0.428	3
2	185331	0.429	3
2	185763	0.43	3
2	186195	0.431	3
2	186627	0.432	3
2	187059	0.433	3
2	187491	0.434	3
2	187923	0.435	3
2	188355	0.436	3
2	188787	0.437	3
2	189219	0.438	3
2	189651	0.439	3
2	190083	0.44	3
2	190515	0.441	3
2	190947	0.442	3
2	191379	0.443	3
2	191811	0.444	3
2	192243	0.445	3
2	192675	0.446	3
2	193107	0.447	3
2	193539	0.448	3
2	193971	0.449	3
2	194403	0.45	3
2	194835	0.451	3
2	195267	0.452	3
2	195699	0.453	3
2	196131	0.454	3
2	196563	0.455	3
2	196995	0.456	3
2	197427	0.457	3
2	197859	0.458	3
2	198291	0.459	3
2	198723	0.46	3
2	199155	0.461	3
2	199587	0.462	3
2	200019	0.463	3
2	200451	0.464	3
2	200883	0.465	3
2	201315	0.466	3
2	201747	0.467	3
2	202179	0.468	3
2	202611	0.469	3
2	203043	0.47	3
2	203475	0.471	3
2	203907	0.472	3
2	204339	0.473	3
2	204771	0.474	3
2	205203	0.475	3
2	205635	0.476	3
2	206067	0.477	3
2	206499	0.478	3
2	206931	0.479	3
2	207363	0.48	3
2	207795	0.481	3
2	208227	0.482	3
2	208659	0.483	3
2	209091	0.484	3
2	209523	0.485	3
2	209955	0.486	3
2	210387	0.487	3
2	210819	0.488	3
2	211251	0.489	3
2	211683	0.49	3
2	212115	0.491	3
2	212547	0.492	3
2	212979	0.493	3
2	213411	0.494	3
2	213843	0.495	3
2	214275	0.496	3
2	214707	0.497	3
2	215139	0.498	3
2	215571	0.499	3
2	216003	0.5	3
2	216435	0.501	3
2	216867	0.502	3
2	217299	0.503	3
2	217731	0.504	3
2	218163	0.505	3
2	218595	0.506	3
2	219027	0.507	3
2	219459	0.508	3
2	219891	0.509	3
2	220323	0.51	3
2	220755	0.511	3
2	221187	0.512	3
2	221619	0.513	3
2	222051	0.514	3
2	222483	0.515	3
2	222915	0.516	3
2	223347	0.517	3
2	223779	0.518	3
2	224211	0.519	3
2	224643	0.52	3
2	225075	0.521	3
2	225507	0.522	3
2	225939	0.523	3
2	226371	0.524	3
2	226803	0.525	3
2	227235	0.526	3
2	227667	0.527	3
2	228099	0.528	3
2	228531	0.529	3
2	228963	0.53	3
2	229395	0.531	3
2	229827	0.532	3
2	230259	0.533	3
2	230691	0.534	3
2	231123	0.535	3
2	231555	0.536	3
2	231987	0.537	3
2	232419	0.538	3
2	232851	0.539	3
2	233283	0.54	3
2	233715	0.541	3
2	234147	0.542	3
2	234579	0.543	3
2	235011	0.544	3
2	235443	0.545	3
2	235875	0.546	3
2	236307	0.547	3
2	236739	0.548	3
2	237171	0.549	3
2	237603	0.55	3
2	238035	0.551	3
2	238467	0.552	3
2	238899	0.553	3
2	239331	0.554	3
2	239763	0.555	3
2	240195	0.556	3
2	240627	0.557	3
2	241059	0.558	3
2	241491	0.559	3
2	241923	0.56	3
2	242355	0.561	3
2	242787	0.562	3
2	243219	0.563	3
2	243651	0.564	3
2	244083	0.565	3
2	244515	0.566	3
2	244947	0.567	3
2	245379	0.568	3
2	245811	0.569	3
2	246243	0.57	3
2	246675	0.571	3
2	247107	0.572	3
2	247539	0.573	3
2	247971	0.574	3
2	248403	0.575	3
2	248835	0.576	3
2	249267	0.577	3
2	249699	0.578	3
2	250131	0.579	3
2	250563	0.58	3
2	250995	0.581	3
2	251427	0.582	3
2	251859	0.583	3
2	252291	0.584	3
2	252723	0.585	3
2	253155	0.586	3
2	253587	0.587	3
2	254019	0.588	3
2	254451	0.589	3
2	254883	0.59	3
2	255315	0.591	3
2	255747	0.592	3
2	256179	0.593	3
2	256611	0.594	3
2	257043	0.595	3
2	257475	0.596	3
2	257907	0.597	3
2	258339	0.598	3
2	258771	0.599	3
2	259203	0.6	3
2	259635	0.601	3
2	260067	0.602	3
2	260499	0.603	3
2	260931	0.604	3
2	261363	0.605	3
2	261795	0.606	3
2	262227	0.607	3
2	262659	0.608	3
2	263091	0.609	3
2	263523	0.61	3
2	263955	0.611	3
2	264387	0.612	3
2	264819	0.613	3
2	265251	0.614	3
2	265683	0.615	3
2	266115	0.616	3
2	266547	0.617	3
2	266979	0.618	3
2	267411	0.619	3
2	267843	0.62	3
2	268275	0.621	3
2	268707	0.622	3
2	269139	0.623	3
2	269571	0.624	3
2	270003	0.625	3
2	270435	0.626	3
2	270867	0.627	3
2	271299	0.628	3
2	271731	0.629	3
2	272163	0.63	3
2	272595	0.631	3
2	273027	0.632	3
2	273459	0.633	3
2	273891	0.634	3
2	274323	0.635	3
2	274755	0.636	3
2	275187	0.637	3
2	275619	0.638	3
2	276051	0.639	3
2	276483	0.64	3
2	276915	0.641	3
2	277347	0.642	3
2	277779	0.643	3
2	278211	0.644	3
2	278643	0.645	3
2	279075	0.646	3
2	279507	0.647	3
2	279939	0.648	3
2	280371	0.649	3
2	280803	0.65	3
2	281235	0.651	3
2	281667	0.652	3
2	282099	0.653	3
2	282531	0.654	3
2	282963	0.655	3
2	283395	0.656	3
2	283827	0.657	3
2	284259	0.658	3
2	284691	0.659	3
2	285123	0.66	3
2	285555	0.661	3
2	285987	0.662	3
2	286419	0.663	3
2	286851	0.664	3
2	287283	0.665	3
2	287715	0.666	3
2	288147	0.667	3
2	288579	0.668	3
2	289011	0.669	3
2	289443	0.67	3
2	289875	0.671	3
2	290307	0.672	3
2	290739	0.673	3
2	291171	0.674	3
2	291603	0.675	3
2	292035	0.676	3
2	292467	0.677	3
2	292899	0.678	3
2	293331	0.679	3
2	293763	0.68	3
2	294195	0.681	3
2	294627	0.682	3
2	295059	0.683	3
2	295491	0.684	3
2	295923	0.685	3
2	296355	0.686	3
2	296787	0.687	3
2	297219	0.688	3
2	297651	0.689	3
2	298083	0.69	3
2	298515	0.691	3
2	298947	0.692	3
2	299379	0.693	3
2	299811	0.694	3
2	300243	0.695	3
2	300675	0.696	3
2	301107	0.697	3
2	301539	0.698	3
2	301971	0.699	3
2	302403	0.7	3
2	302835	0.701	3
2	303267	0.702	3
2	303699	0.703	3
2	304131	0.704	3
2	304563	0.705	3
2	304995	0.706	3
2	305427	0.707	3
2	305859	0.708	3
2	306291	0.709	3
2	306723	0.71	3
2	307155	0.711	3
2	307587	0.712	3
2	308019	0.713	3
2	308451	0.714	3
2	308883	0.715	3
2	309315	0.716	3
2	309747	0.717	3
2	310179	0.718	3
2	310611	0.719	3
2	311043	0.72	3
2	311475	0.721	3
2	311907	0.722	3
2	312339	0.723	3
2	312771	0.724	3
2	313203	0.725	3
2	313635	0.726	3
2	314067	0.727	3
2	314499	0.728	3
2	314931	0.729	3
2	315363	0.73	3
2	315795	0.731	3
2	316227	0.732	3
2	316659	0.733	3
2	317091	0.734	3
2	317523	0.735	3
2	317955	0.736	3
2	318387	0.737	3
2	318819	0.738	3
2	319251	0.739	3
2	319683	0.74	3
2	320115	0.741	3
2	320547	0.742	3
2	320979	0.743	3
2	321411	0.744	3
2	321843	0.745	3
2	322275	0.746	3
2	322707	0.747	3
2	323139	0.748	3
2	323571	0.749	3
2	324003	0.75	3
2	324435	0.751	3
2	324867	0.752	3
2	325299	0.753	3
2	325731	0.754	3
2	326163	0.755	3
2	326595	0.756	3
2	327027	0.757	3
2	327459	0.758	3
2	327891	0.759	3
2	328323	0.76	3
2	328755	0.761	3
2	329187	0.762	3
2	329619	0.763	3
2	330051	0.764	3
2	330483	0.765	3
2	330915	0.766	3
2	331347	0.767	3
2	331779	0.768	3
2	332211	0.769	3
2	332643	0.77	3
2	333075	0.771	3
2	333507	0.772	3
2	333939	0.773	3
2	334371	0.774	3
2	334803	0.775	3
2	335235	0.776	3
2	335667	0.777	3
2	336099	0.778	3
2	336531	0.779	3
2	336963	0.78	3
2	337395	0.781	3
2	337827	0.782	3
2	338259	0.783	3
2	338691	0.784	3
2	339123	0.785	3
2	339555	0.786	3
2	339987	0.787	3
2	340419	0.788	3
2	340851	0.789	3
2	341283	0.79	3
2	341715	0.791	3
2	342147	0.792	3
2	342579	0.793	3
2	343011	0.794	3
2	343443	0.795	3
2	343875	0.796	3
2	344307	0.797	3
2	344739	0.798	3
2	345171	0.799	3
2	345603	0.8	3
2	346035	0.801	3
2	346467	0.802	3
2	346899	0.803	3
2	347331	0.804	3
2	347763	0.805	3
2	348195	0.806	3
2	348627	0.807	3
2	349059	0.808	3
2	349491	0.809	3
2	349923	0.81	3
2	350355	0.811	3
2	350787	0.812	3
2	351219	0.813	3
2	351651	0.814	3
2	352083	0.815	3
2	352515	0.816	3
2	352947	0.817	3
2	353379	0.818	3
2	353811	0.819	3
2	354243	0.82	3
2	354675	0.821	3
2	355107	0.822	3
2	355539	0.823	3
2	355971	0.824	3
2	356403	0.825	3
2	356835	0.826	3
2	357267	0.827	3
2	357699	0.828	3
2	358131	0.829	3
2	358563	0.83	3
2	358995	0.831	3
2	359427	0.832	3
2	359859	0.833	3
2	360291	0.834	3
2	360723	0.835	3
2	361155	0.836	3
2	361587	0.837	3
2	362019	0.838	3
2	362451	0.839	3
2	362883	0.84	3
2	363315	0.841	3
2	363747	0.842	3
2	364179	0.843	3
2	364611	0.844	3
2	365043	0.845	3
2	365475	0.846	3
2	365907	0.847	3
2	366339	0.848	3
2	366771	0.849	3
2	367203	0.85	3
2	367635	0.851	3
2	368067	0.852	3
2	368499	0.853	3
2	368931	0.854	3
2	369363	0.855	3
2	369795	0.856	3
2	370227	0.857	3
2	370659	0.858	3
2	371091	0.859	3
2	371523	0.86	3
2	371955	0.861	3
2	372387	0.862	3
2	372819	0.863	3
2	373251	0.864	3
2	373683	0.865	3
2	374115	0.866	3
2	374547	0.867	3
2	374979	0.868	3
2	375411	0.869	3
2	375843	0.87	3
2	376275	0.871	3
2	376707	0.872	3
2	377139	0.873	3
2	377571	0.874	3
2	378003	0.875	3
2	378435	0.876	3
2	378867	0.877	3
2	379299	0.878	3
2	379731	0.879	3
2	380163	0.88	3
2	380595	0.881	3
2	381027	0.882	3
2	381459	0.883	3
2	381891	0.884	3
2	382323	0.885	3
2	382755	0.886	3
2	383187	0.887	3
2	383619	0.888	3
2	384051	0.889	3
2	384483	0.89	3
2	384915	0.891	3
2	385347	0.892	3
2	385779	0.893	3
2	386211	0.894	3
2	386643	0.895	3
2	387075	0.896	3
2	387507	0.897	3
2	387939	0.898	3
2	388371	0.899	3
2	388803	0.9	3
2	389235	0.901	3
2	389667	0.902	3
2	390099	0.903	3
2	390531	0.904	3
2	390963	0.905	3
2	391395	0.906	3
2	391827	0.907	3
2	392259	0.908	3
2	392691	0.909	3
2	393123	0.91	3
2	393555	0.911	3
2	393987	0.912	3
2	394419	0.913	3
2	394851	0.914	3
2	395283	0.915	3
2	395715	0.916	3
2	396147	0.917	3
2	396579	0.918	3
2	397011	0.919	3
2	397443	0.92	3
2	397875	0.921	3
2	398307	0.922	3
2	398739	0.923	3
2	399171	0.924	3
2	399603	0.925	3
2	400035	0.926	3
2	400467	0.927	3
2	400899	0.928	3
2	401331	0.929	3
2	401763	0.93	3
2	402195	0.931	3
2	402627	0.932	3
2	403059	0.933	3
2	403491	0.934	3
2	403923	0.935	3
2	404355	0.936	3
2	404787	0.937	3
2	405219	0.938	3
2	405651	0.939	3
2	406083	0.94	3
2	406515	0.941	3
2	406947	0.942	3
2	407379	0.943	3
2	407811	0.944	3
2	408243	0.945	3
2	408675	0.946	3
2	409107	0.947	3
2	409539	0.948	3
2	409971	0.949	3
2	410403	0.95	3
2	410835	0.951	3
2	411267	0.952	3
2	411699	0.953	3
2	412131	0.954	3
2	412563	0.955	3
2	412995	0.956	3
2	413427	0.957	3
2	413859	0.958	3
2	414291	0.959	3
2	414723	0.96	3
2	415155	0.961	3
2	415587	0.962	3
2	416019	0.963	3
2	416451	0.964	3
2	416883	0.965	3
2	417315	0.966	3
2	417747	0.967	3
2	418179	0.968	3
2	418611	0.969	3
2	419043	0.97	3
2	419475	0.971	3
2	419907	0.972	3
2	420339	0.973	3
2	420771	0.974	3
2	421203	0.975	3
2	421635	0.976	3
2	422067	0.977	3
2	422499	0.978	3
2	422931	0.979	3
2	423363	0.98	3
2	423795	0.981	3
2	424227	0.982	3
2	424659	0.983	3
2	425091	0.984	3
2	425523	0.985	3
2	425955	0.986	3
2	426387	0.987	3
2	426819	0.988	3
2	427251	0.989	3
2	427683	0.99	3
2	428115	0.991	3
2	428547	0.992	3
2	428979	0.993	3
2	429411	0.994	3
2	429843	0.995	3
2	430275	0.996	3
2	430707	0.997	3
2	431139	0.998	3
2	431571	0.999	3
3	9	0	4
3	436	0.001	4
3	868	0.002	4
3	1300	0.003	4
3	1732	0.004	4
3	2164	0.005	4
3	2596	0.006	4
3	3028	0.007	4
3	3460	0.008	4
3	3892	0.009	4
3	4324	0.01	4
3	4756	0.011	4
3	5188	0.012	4
3	5620	0.013	4
3	6052	0.014	4
3	6484	0.015	4
3	6916	0.016	4
3	7348	0.017	4
3	7780	0.018	4
3	8212	0.019	4
3	8644	0.02	4
3	9076	0.021	4
3	9508	0.022	4
3	9940	0.023	4
3	10372	0.024	4
3	10804	0.025	4
3	11236	0.026	4
3	11668	0.027	4
3	12100	0.028	4
3	12532	0.029	4
3	12964	0.03	4
3	13396	0.031	4
3	13828	0.032	4
3	14260	0.033	4
3	14692	0.034	4
3	15124	0.035	4
3	15556	0.036	4
3	15988	0.037	4
3	16420	0.038	4
3	16852	0.039	4
3	17284	0.04	4
3	17716	0.041	4
3	18148	0.042	4
3	18580	0.043	4
3	19012	0.044	4
3	19444	0.045	4
3	19876	0.046	4
3	20308	0.047	4
3	20740	0.048	4
3	21172	0.049	4
3	21604	0.05	4
3	22036	0.051	4
3	22468	0.052	4
3	22900	0.053	4
3	23332	0.054	4
3	23764	0.055	4
3	24196	0.056	4
3	24628	0.057	4
3	25060	0.058	4
3	25492	0.059	4
3	25924	0.06	4
3	26356	0.061	4
3	26788	0.062	4
3	27220	0.063	4
3	27652	0.064	4
3	28084	0.065	4
3	28516	0.066	4
3	28948	0.067	4
3	29380	0.068	4
3	29812	0.069	4
3	30244	0.07	4
3	30676	0.071	4
3	31108	0.072	4
3	31540	0.073	4
3	31972	0.074	4
3	32404	0.075	4
3	32836	0.076	4
3	33268	0.077	4
3	33700	0.078	4
3	34132	0.079	4
3	34564	0.08	4
3	34996	0.081	4
3	35428	0.082	4
3	35860	0.083	4
3	36292	0.084	4
3	36724	0.085	4
3	37156	0.086	4
3	37588	0.087	4
3	38020	0.088	4
3	38452	0.089	4
3	38884	0.09	4
3	39316	0.091	4
3	39748	0.092	4
3	40180	0.093	4
3	40612	0.094	4
3	41044	0.095	4
3	41476	0.096	4
3	41908	0.097	4
3	42340	0.098	4
3	42772	0.099	4
3	43204	0.1	4
3	43636	0.101	4
3	44068	0.102	4
3	44500	0.103	4
3	44932	0.104	4
3	45364	0.105	4
3	45796	0.106	4
3	46228	0.107	4
3	46660	0.108	4
3	47092	0.109	4
3	47524	0.11	4
3	47956	0.111	4
3	48388	0.112	4
3	48820	0.113	4
3	49252	0.114	4
3	49684	0.115	4
3	50116	0.116	4
3	50548	0.117	4
3	50980	0.118	4
3	51412	0.119	4
3	51844	0.12	4
3	52276	0.121	4
3	52708	0.122	4
3	53140	0.123	4
3	53572	0.124	4
3	54004	0.125	4
3	54436	0.126	4
3	54868	0.127	4
3	55300	0.128	4
3	55732	0.129	4
3	56164	0.13	4
3	56596	0.131	4
3	57028	0.132	4
3	57460	0.133	4
3	57892	0.134	4
3	58324	0.135	4
3	58756	0.136	4
3	59188	0.137	4
3	59620	0.138	4
3	60052	0.139	4
3	60484	0.14	4
3	60916	0.141	4
3	61348	0.142	4
3	61780	0.143	4
3	62212	0.144	4
3	62644	0.145	4
3	63076	0.146	4
3	63508	0.147	4
3	63940	0.148	4
3	64372	0.149	4
3	64804	0.15	4
3	65236	0.151	4
3	65668	0.152	4
3	66100	0.153	4
3	66532	0.154	4
3	66964	0.155	4
3	67396	0.156	4
3	67828	0.157	4
3	68260	0.158	4
3	68692	0.159	4
3	69124	0.16	4
3	69556	0.161	4
3	69988	0.162	4
3	70420	0.163	4
3	70852	0.164	4
3	71284	0.165	4
3	71716	0.166	4
3	72148	0.167	4
3	72580	0.168	4
3	73012	0.169	4
3	73444	0.17	4
3	73876	0.171	4
3	74308	0.172	4
3	74740	0.173	4
3	75172	0.174	4
3	75604	0.175	4
3	76036	0.176	4
3	76468	0.177	4
3	76900	0.178	4
3	77332	0.179	4
3	77764	0.18	4
3	78196	0.181	4
3	78628	0.182	4
3	79060	0.183	4
3	79492	0.184	4
3	79924	0.185	4
3	80356	0.186	4
3	80788	0.187	4
3	81220	0.188	4
3	81652	0.189	4
3	82084	0.19	4
3	82516	0.191	4
3	82948	0.192	4
3	83380	0.193	4
3	83812	0.194	4
3	84244	0.195	4
3	84676	0.196	4
3	85108	0.197	4
3	85540	0.198	4
3	85972	0.199	4
3	86404	0.2	4
3	86836	0.201	4
3	87268	0.202	4
3	87700	0.203	4
3	88132	0.204	4
3	88564	0.205	4
3	88996	0.206	4
3	89428	0.207	4
3	89860	0.208	4
3	90292	0.209	4
3	90724	0.21	4
3	91156	0.211	4
3	91588	0.212	4
3	92020	0.213	4
3	92452	0.214	4
3	92884	0.215	4
3	93316	0.216	4
3	93748	0.217	4
3	94180	0.218	4
3	94612	0.219	4
3	95044	0.22	4
3	95476	0.221	4
3	95908	0.222	4
3	96340	0.223	4
3	96772	0.224	4
3	97204	0.225	4
3	97636	0.226	4
3	98068	0.227	4
3	98500	0.228	4
3	98932	0.229	4
3	99364	0.23	4
3	99796	0.231	4
3	100228	0.232	4
3	100660	0.233	4
3	101092	0.234	4
3	101524	0.235	4
3	101956	0.236	4
3	102388	0.237	4
3	102820	0.238	4
3	103252	0.239	4
3	103684	0.24	4
3	104116	0.241	4
3	104548	0.242	4
3	104980	0.243	4
3	105412	0.244	4
3	105844	0.245	4
3	106276	0.246	4
3	106708	0.247	4
3	107140	0.248	4
3	107572	0.249	4
3	108004	0.25	4
3	108436	0.251	4
3	108868	0.252	4
3	109300	0.253	4
3	109732	0.254	4
3	110164	0.255	4
3	110596	0.256	4
3	111028	0.257	4
3	111460	0.258	4
3	111892	0.259	4
3	112324	0.26	4
3	112756	0.261	4
3	113188	0.262	4
3	113620	0.263	4
3	114052	0.264	4
3	114484	0.265	4
3	114916	0.266	4
3	115348	0.267	4
3	115780	0.268	4
3	116212	0.269	4
3	116644	0.27	4
3	117076	0.271	4
3	117508	0.272	4
3	117940	0.273	4
3	118372	0.274	4
3	118804	0.275	4
3	119236	0.276	4
3	119668	0.277	4
3	120100	0.278	4
3	120532	0.279	4
3	120964	0.28	4
3	121396	0.281	4
3	121828	0.282	4
3	122260	0.283	4
3	122692	0.284	4
3	123124	0.285	4
3	123556	0.286	4
3	123988	0.287	4
3	124420	0.288	4
3	124852	0.289	4
3	125284	0.29	4
3	125716	0.291	4
3	126148	0.292	4
3	126580	0.293	4
3	127012	0.294	4
3	127444	0.295	4
3	127876	0.296	4
3	128308	0.297	4
3	128740	0.298	4
3	129172	0.299	4
3	129604	0.3	4
3	130036	0.301	4
3	130468	0.302	4
3	130900	0.303	4
3	131332	0.304	4
3	131764	0.305	4
3	132196	0.306	4
3	132628	0.307	4
3	133060	0.308	4
3	133492	0.309	4
3	133924	0.31	4
3	134356	0.311	4
3	134788	0.312	4
3	135220	0.313	4
3	135652	0.314	4
3	136084	0.315	4
3	136516	0.316	4
3	136948	0.317	4
3	137380	0.318	4
3	137812	0.319	4
3	138244	0.32	4
3	138676	0.321	4
3	139108	0.322	4
3	139540	0.323	4
3	139972	0.324	4
3	140404	0.325	4
3	140836	0.326	4
3	141268	0.327	4
3	141700	0.328	4
3	142132	0.329	4
3	142564	0.33	4
3	142996	0.331	4
3	143428	0.332	4
3	143860	0.333	4
3	144292	0.334	4
3	144724	0.335	4
3	145156	0.336	4
3	145588	0.337	4
3	146020	0.338	4
3	146452	0.339	4
3	146884	0.34	4
3	147316	0.341	4
3	147748	0.342	4
3	148180	0.343	4
3	148612	0.344	4
3	149044	0.345	4
3	149476	0.346	4
3	149908	0.347	4
3	150340	0.348	4
3	150772	0.349	4
3	151204	0.35	4
3	151636	0.351	4
3	152068	0.352	4
3	152500	0.353	4
3	152932	0.354	4
3	153364	0.355	4
3	153796	0.356	4
3	154228	0.357	4
3	154660	0.358	4
3	155092	0.359	4
3	155524	0.36	4
3	155956	0.361	4
3	156388	0.362	4
3	156820	0.363	4
3	157252	0.364	4
3	157684	0.365	4
3	158116	0.366	4
3	158548	0.367	4
3	158980	0.368	4
3	159412	0.369	4
3	159844	0.37	4
3	160276	0.371	4
3	160708	0.372	4
3	161140	0.373	4
3	161572	0.374	4
3	162004	0.375	4
3	162436	0.376	4
3	162868	0.377	4
3	163300	0.378	4
3	163732	0.379	4
3	164164	0.38	4
3	164596	0.381	4
3	165028	0.382	4
3	165460	0.383	4
3	165892	0.384	4
3	166324	0.385	4
3	166756	0.386	4
3	167188	0.387	4
3	167620	0.388	4
3	168052	0.389	4
3	168484	0.39	4
3	168916	0.391	4
3	169348	0.392	4
3	169780	0.393	4
3	170212	0.394	4
3	170644	0.395	4
3	171076	0.396	4
3	171508	0.397	4
3	171940	0.398	4
3	172372	0.399	4
3	172804	0.4	4
3	173236	0.401	4
3	173668	0.402	4
3	174100	0.403	4
3	174532	0.404	4
3	174964	0.405	4
3	175396	0.406	4
3	175828	0.407	4
3	176260	0.408	4
3	176692	0.409	4
3	177124	0.41	4
3	177556	0.411	4
3	177988	0.412	4
3	178420	0.413	4
3	178852	0.414	4
3	179284	0.415	4
3	179716	0.416	4
3	180148	0.417	4
3	180580	0.418	4
3	181012	0.419	4
3	181444	0.42	4
3	181876	0.421	4
3	182308	0.422	4
3	182740	0.423	4
3	183172	0.424	4
3	183604	0.425	4
3	184036	0.426	4
3	184468	0.427	4
3	184900	0.428	4
3	185332	0.429	4
3	185764	0.43	4
3	186196	0.431	4
3	186628	0.432	4
3	187060	0.433	4
3	187492	0.434	4
3	187924	0.435	4
3	188356	0.436	4
3	188788	0.437	4
3	189220	0.438	4
3	189652	0.439	4
3	190084	0.44	4
3	190516	0.441	4
3	190948	0.442	4
3	191380	0.443	4
3	191812	0.444	4
3	192244	0.445	4
3	192676	0.446	4
3	193108	0.447	4
3	193540	0.448	4
3	193972	0.449	4
3	194404	0.45	4
3	194836	0.451	4
3	195268	0.452	4
3	195700	0.453	4
3	196132	0.454	4
3	196564	0.455	4
3	196996	0.456	4
3	197428	0.457	4
3	197860	0.458	4
3	198292	0.459	4
3	198724	0.46	4
3	199156	0.461	4
3	199588	0.462	4
3	200020	0.463	4
3	200452	0.464	4
3	200884	0.465	4
3	201316	0.466	4
3	201748	0.467	4
3	202180	0.468	4
3	202612	0.469	4
3	203044	0.47	4
3	203476	0.471	4
3	203908	0.472	4
3	204340	0.473	4
3	204772	0.474	4
3	205204	0.475	4
3	205636	0.476	4
3	206068	0.477	4
3	206500	0.478	4
3	206932	0.479	4
3	207364	0.48	4
3	207796	0.481	4
3	208228	0.482	4
3	208660	0.483	4
3	209092	0.484	4
3	209524	0.485	4
3	209956	0.486	4
3	210388	0.487	4
3	210820	0.488	4
3	211252	0.489	4
3	211684	0.49	4
3	212116	0.491	4
3	212548	0.492	4
3	212980	0.493	4
3	213412	0.494	4
3	213844	0.495	4
3	214276	0.496	4
3	214708	0.497	4
3	215140	0.498	4
3	215572	0.499	4
3	216004	0.5	4
3	216436	0.501	4
3	216868	0.502	4
3	217300	0.503	4
3	217732	0.504	4
3	218164	0.505	4
3	218596	0.506	4
3	219028	0.507	4
3	219460	0.508	4
3	219892	0.509	4
3	220324	0.51	4
3	220756	0.511	4
3	221188	0.512	4
3	221620	0.513	4
3	222052	0.514	4
3	222484	0.515	4
3	222916	0.516	4
3	223348	0.517	4
3	223780	0.518	4
3	224212	0.519	4
3	224644	0.52	4
3	225076	0.521	4
3	225508	0.522	4
3	225940	0.523	4
3	226372	0.524	4
3	226804	0.525	4
3	227236	0.526	4
3	227668	0.527	4
3	228100	0.528	4
3	228532	0.529	4
3	228964	0.53	4
3	229396	0.531	4
3	229828	0.532	4
3	230260	0.533	4
3	230692	0.534	4
3	231124	0.535	4
3	231556	0.536	4
3	231988	0.537	4
3	232420	0.538	4
3	232852	0.539	4
3	233284	0.54	4
3	233716	0.541	4
3	234148	0.542	4
3	234580	0.543	4
3	235012	0.544	4
3	235444	0.545	4
3	235876	0.546	4
3	236308	0.547	4
3	236740	0.548	4
3	237172	0.549	4
3	237604	0.55	4
3	238036	0.551	4
3	238468	0.552	4
3	238900	0.553	4
3	239332	0.554	4
3	239764	0.555	4
3	240196	0.556	4
3	240628	0.557	4
3	241060	0.558	4
3	241492	0.559	4
3	241924	0.56	4
3	242356	0.561	4
3	242788	0.562	4
3	243220	0.563	4
3	243652	0.564	4
3	244084	0.565	4
3	244516	0.566	4
3	244948	0.567	4
3	245380	0.568	4
3	245812	0.569	4
3	246244	0.57	4
3	246676	0.571	4
3	247108	0.572	4
3	247540	0.573	4
3	247972	0.574	4
3	248404	0.575	4
3	248836	0.576	4
3	249268	0.577	4
3	249700	0.578	4
3	250132	0.579	4
3	250564	0.58	4
3	250996	0.581	4
3	251428	0.582	4
3	251860	0.583	4
3	252292	0.584	4
3	252724	0.585	4
3	253156	0.586	4
3	253588	0.587	4
3	254020	0.588	4
3	254452	0.589	4
3	254884	0.59	4
3	255316	0.591	4
3	255748	0.592	4
3	256180	0.593	4
3	256612	0.594	4
3	257044	0.595	4
3	257476	0.596	4
3	257908	0.597	4
3	258340	0.598	4
3	258772	0.599	4
3	259204	0.6	4
3	259636	0.601	4
3	260068	0.602	4
3	260500	0.603	4
3	260932	0.604	4
3	261364	0.605	4
3	261796	0.606	4
3	262228	0.607	4
3	262660	0.608	4
3	263092	0.609	4
3	263524	0.61	4
3	263956	0.611	4
3	264388	0.612	4
3	264820	0.613	4
3	265252	0.614	4
3	265684	0.615	4
3	266116	0.616	4
3	266548	0.617	4
3	266980	0.618	4
3	267412	0.619	4
3	267844	0.62	4
3	268276	0.621	4
3	268708	0.622	4
3	269140	0.623	4
3	269572	0.624	4
3	270004	0.625	4
3	270436	0.626	4
3	270868	0.627	4
3	271300	0.628	4
3	271732	0.629	4
3	272164	0.63	4
3	272596	0.631	4
3	273028	0.632	4
3	273460	0.633	4
3	273892	0.634	4
3	274324	0.635	4
3	274756	0.636	4
3	275188	0.637	4
3	275620	0.638	4
3	276052	0.639	4
3	276484	0.64	4
3	276916	0.641	4
3	277348	0.642	4
3	277780	0.643	4
3	278212	0.644	4
3	278644	0.645	4
3	279076	0.646	4
3	279508	0.647	4
3	279940	0.648	4
3	280372	0.649	4
3	280804	0.65	4
3	281236	0.651	4
3	281668	0.652	4
3	282100	0.653	4
3	282532	0.654	4
3	282964	0.655	4
3	283396	0.656	4
3	283828	0.657	4
3	284260	0.658	4
3	284692	0.659	4
3	285124	0.66	4
3	285556	0.661	4
3	285988	0.662	4
3	286420	0.663	4
3	286852	0.664	4
3	287284	0.665	4
3	287716	0.666	4
3	288148	0.667	4
3	288580	0.668	4
3	289012	0.669	4
3	289444	0.67	4
3	289876	0.671	4
3	290308	0.672	4
3	290740	0.673	4
3	291172	0.674	4
3	291604	0.675	4
3	292036	0.676	4
3	292468	0.677	4
3	292900	0.678	4
3	293332	0.679	4
3	293764	0.68	4
3	294196	0.681	4
3	294628	0.682	4
3	295060	0.683	4
3	295492	0.684	4
3	295924	0.685	4
3	296356	0.686	4
3	296788	0.687	4
3	297220	0.688	4
3	297652	0.689	4
3	298084	0.69	4
3	298516	0.691	4
3	298948	0.692	4
3	299380	0.693	4
3	299812	0.694	4
3	300244	0.695	4
3	300676	0.696	4
3	301108	0.697	4
3	301540	0.698	4
3	301972	0.699	4
3	302404	0.7	4
3	302836	0.701	4
3	303268	0.702	4
3	303700	0.703	4
3	304132	0.704	4
3	304564	0.705	4
3	304996	0.706	4
3	305428	0.707	4
3	305860	0.708	4
3	306292	0.709	4
3	306724	0.71	4
3	307156	0.711	4
3	307588	0.712	4
3	308020	0.713	4
3	308452	0.714	4
3	308884	0.715	4
3	309316	0.716	4
3	309748	0.717	4
3	310180	0.718	4
3	310612	0.719	4
3	311044	0.72	4
3	311476	0.721	4
3	311908	0.722	4
3	312340	0.723	4
3	312772	0.724	4
3	313204	0.725	4
3	313636	0.726	4
3	314068	0.727	4
3	314500	0.728	4
3	314932	0.729	4
3	315364	0.73	4
3	315796	0.731	4
3	316228	0.732	4
3	316660	0.733	4
3	317092	0.734	4
3	317524	0.735	4
3	317956	0.736	4
3	318388	0.737	4
3	318820	0.738	4
3	319252	0.739	4
3	319684	0.74	4
3	320116	0.741	4
3	320548	0.742	4
3	320980	0.743	4
3	321412	0.744	4
3	321844	0.745	4
3	322276	0.746	4
3	322708	0.747	4
3	323140	0.748	4
3	323572	0.749	4
3	324004	0.75	4
3	324436	0.751	4
3	324868	0.752	4
3	325300	0.753	4
3	325732	0.754	4
3	326164	0.755	4
3	326596	0.756	4
3	327028	0.757	4
3	327460	0.758	4
3	327892	0.759	4
3	328324	0.76	4
3	328756	0.761	4
3	329188	0.762	4
3	329620	0.763	4
3	330052	0.764	4
3	330484	0.765	4
3	330916	0.766	4
3	331348	0.767	4
3	331780	0.768	4
3	332212	0.769	4
3	332644	0.77	4
3	333076	0.771	4
3	333508	0.772	4
3	333940	0.773	4
3	334372	0.774	4
3	334804	0.775	4
3	335236	0.776	4
3	335668	0.777	4
3	336100	0.778	4
3	336532	0.779	4
3	336964	0.78	4
3	337396	0.781	4
3	337828	0.782	4
3	338260	0.783	4
3	338692	0.784	4
3	339124	0.785	4
3	339556	0.786	4
3	339988	0.787	4
3	340420	0.788	4
3	340852	0.789	4
3	341284	0.79	4
3	341716	0.791	4
3	342148	0.792	4
3	342580	0.793	4
3	343012	0.794	4
3	343444	0.795	4
3	343876	0.796	4
3	344308	0.797	4
3	344740	0.798	4
3	345172	0.799	4
3	345604	0.8	4
3	346036	0.801	4
3	346468	0.802	4
3	346900	0.803	4
3	347332	0.804	4
3	347764	0.805	4
3	348196	0.806	4
3	348628	0.807	4
3	349060	0.808	4
3	349492	0.809	4
3	349924	0.81	4
3	350356	0.811	4
3	350788	0.812	4
3	351220	0.813	4
3	351652	0.814	4
3	352084	0.815	4
3	352516	0.816	4
3	352948	0.817	4
3	353380	0.818	4
3	353812	0.819	4
3	354244	0.82	4
3	354676	0.821	4
3	355108	0.822	4
3	355540	0.823	4
3	355972	0.824	4
3	356404	0.825	4
3	356836	0.826	4
3	357268	0.827	4
3	357700	0.828	4
3	358132	0.829	4
3	358564	0.83	4
3	358996	0.831	4
3	359428	0.832	4
3	359860	0.833	4
3	360292	0.834	4
3	360724	0.835	4
3	361156	0.836	4
3	361588	0.837	4
3	362020	0.838	4
3	362452	0.839	4
3	362884	0.84	4
3	363316	0.841	4
3	363748	0.842	4
3	364180	0.843	4
3	364612	0.844	4
3	365044	0.845	4
3	365476	0.846	4
3	365908	0.847	4
3	366340	0.848	4
3	366772	0.849	4
3	367204	0.85	4
3	367636	0.851	4
3	368068	0.852	4
3	368500	0.853	4
3	368932	0.854	4
3	369364	0.855	4
3	369796	0.856	4
3	370228	0.857	4
3	370660	0.858	4
3	371092	0.859	4
3	371524	0.86	4
3	371956	0.861	4
3	372388	0.862	4
3	372820	0.863	4
3	373252	0.864	4
3	373684	0.865	4
3	374116	0.866	4
3	374548	0.867	4
3	374980	0.868	4
3	375412	0.869	4
3	375844	0.87	4
3	376276	0.871	4
3	376708	0.872	4
3	377140	0.873	4
3	377572	0.874	4
3	378004	0.875	4
3	378436	0.876	4
3	378868	0.877	4
3	379300	0.878	4
3	379732	0.879	4
3	380164	0.88	4
3	380596	0.881	4
3	381028	0.882	4
3	381460	0.883	4
3	381892	0.884	4
3	382324	0.885	4
3	382756	0.886	4
3	383188	0.887	4
3	383620	0.888	4
3	384052	0.889	4
3	384484	0.89	4
3	384916	0.891	4
3	385348	0.892	4
3	385780	0.893	4
3	386212	0.894	4
3	386644	0.895	4
3	387076	0.896	4
3	387508	0.897	4
3	387940	0.898	4
3	388372	0.899	4
3	388804	0.9	4
3	389236	0.901	4
3	389668	0.902	4
3	390100	0.903	4
3	390532	0.904	4
3	390964	0.905	4
3	391396	0.906	4
3	391828	0.907	4
3	392260	0.908	4
3	392692	0.909	4
3	393124	0.91	4
3	393556	0.911	4
3	393988	0.912	4
3	394420	0.913	4
3	394852	0.914	4
3	395284	0.915	4
3	395716	0.916	4
3	396148	0.917	4
3	396580	0.918	4
3	397012	0.919	4
3	397444	0.92	4
3	397876	0.921	4
3	398308	0.922	4
3	398740	0.923	4
3	399172	0.924	4
3	399604	0.925	4
3	400036	0.926	4
3	400468	0.927	4
3	400900	0.928	4
3	401332	0.929	4
3	401764	0.93	4
3	402196	0.931	4
3	402628	0.932	4
3	403060	0.933	4
3	403492	0.934	4
3	403924	0.935	4
3	404356	0.936	4
3	404788	0.937	4
3	405220	0.938	4
3	405652	0.939	4
3	406084	0.94	4
3	406516	0.941	4
3	406948	0.942	4
3	407380	0.943	4
3	407812	0.944	4
3	408244	0.945	4
3	408676	0.946	4
3	409108	0.947	4
3	409540	0.948	4
3	409972	0.949	4
3	410404	0.95	4
3	410836	0.951	4
3	411268	0.952	4
3	411700	0.953	4
3	412132	0.954	4
3	412564	0.955	4
3	412996	0.956	4
3	413428	0.957	4
3	413860	0.958	4
3	414292	0.959	4
3	414724	0.96	4
3	415156	0.961	4
3	415588	0.962	4
3	416020	0.963	4
3	416452	0.964	4
3	416884	0.965	4
3	417316	0.966	4
3	417748	0.967	4
3	418180	0.968	4
3	418612	0.969	4
3	419044	0.97	4
3	419476	0.971	4
3	419908	0.972	4
3	420340	0.973	4
3	420772	0.974	4
3	421204	0.975	4
3	421636	0.976	4
3	422068	0.977	4
3	422500	0.978	4
3	422932	0.979	4
3	423364	0.98	4
3	423796	0.981	4
3	424228	0.982	4
3	424660	0.983	4
3	425092	0.984	4
3	425524	0.985	4
3	425956	0.986	4
3	426388	0.987	4
3	426820	0.988	4
3	427252	0.989	4
3	427684	0.99	4
3	428116	0.991	4
3	428548	0.992	4
3	428980	0.993	4
3	429412	0.994	4
3	429844	0.995	4
3	430276	0.996	4
3	430708	0.997	4
3	431140	0.998	4
3	431572	0.999	4
4	10	0	5
4	437	0.001	5
4	869	0.002	5
4	1301	0.003	5
4	1733	0.004	5
4	2165	0.005	5
4	2597	0.006	5
4	3029	0.007	5
4	3461	0.008	5
4	3893	0.009	5
4	4325	0.01	5
4	4757	0.011	5
4	5189	0.012	5
4	5621	0.013	5
4	6053	0.014	5
4	6485	0.015	5
4	6917	0.016	5
4	7349	0.017	5
4	7781	0.018	5
4	8213	0.019	5
4	8645	0.02	5
4	9077	0.021	5
4	9509	0.022	5
4	9941	0.023	5
4	10373	0.024	5
4	10805	0.025	5
4	11237	0.026	5
4	11669	0.027	5
4	12101	0.028	5
4	12533	0.029	5
4	12965	0.03	5
4	13397	0.031	5
4	13829	0.032	5
4	14261	0.033	5
4	14693	0.034	5
4	15125	0.035	5
4	15557	0.036	5
4	15989	0.037	5
4	16421	0.038	5
4	16853	0.039	5
4	17285	0.04	5
4	17717	0.041	5
4	18149	0.042	5
4	18581	0.043	5
4	19013	0.044	5
4	19445	0.045	5
4	19877	0.046	5
4	20309	0.047	5
4	20741	0.048	5
4	21173	0.049	5
4	21605	0.05	5
4	22037	0.051	5
4	22469	0.052	5
4	22901	0.053	5
4	23333	0.054	5
4	23765	0.055	5
4	24197	0.056	5
4	24629	0.057	5
4	25061	0.058	5
4	25493	0.059	5
4	25925	0.06	5
4	26357	0.061	5
4	26789	0.062	5
4	27221	0.063	5
4	27653	0.064	5
4	28085	0.065	5
4	28517	0.066	5
4	28949	0.067	5
4	29381	0.068	5
4	29813	0.069	5
4	30245	0.07	5
4	30677	0.071	5
4	31109	0.072	5
4	31541	0.073	5
4	31973	0.074	5
4	32405	0.075	5
4	32837	0.076	5
4	33269	0.077	5
4	33701	0.078	5
4	34133	0.079	5
4	34565	0.08	5
4	34997	0.081	5
4	35429	0.082	5
4	35861	0.083	5
4	36293	0.084	5
4	36725	0.085	5
4	37157	0.086	5
4	37589	0.087	5
4	38021	0.088	5
4	38453	0.089	5
4	38885	0.09	5
4	39317	0.091	5
4	39749	0.092	5
4	40181	0.093	5
4	40613	0.094	5
4	41045	0.095	5
4	41477	0.096	5
4	41909	0.097	5
4	42341	0.098	5
4	42773	0.099	5
4	43205	0.1	5
4	43637	0.101	5
4	44069	0.102	5
4	44501	0.103	5
4	44933	0.104	5
4	45365	0.105	5
4	45797	0.106	5
4	46229	0.107	5
4	46661	0.108	5
4	47093	0.109	5
4	47525	0.11	5
4	47957	0.111	5
4	48389	0.112	5
4	48821	0.113	5
4	49253	0.114	5
4	49685	0.115	5
4	50117	0.116	5
4	50549	0.117	5
4	50981	0.118	5
4	51413	0.119	5
4	51845	0.12	5
4	52277	0.121	5
4	52709	0.122	5
4	53141	0.123	5
4	53573	0.124	5
4	54005	0.125	5
4	54437	0.126	5
4	54869	0.127	5
4	55301	0.128	5
4	55733	0.129	5
4	56165	0.13	5
4	56597	0.131	5
4	57029	0.132	5
4	57461	0.133	5
4	57893	0.134	5
4	58325	0.135	5
4	58757	0.136	5
4	59189	0.137	5
4	59621	0.138	5
4	60053	0.139	5
4	60485	0.14	5
4	60917	0.141	5
4	61349	0.142	5
4	61781	0.143	5
4	62213	0.144	5
4	62645	0.145	5
4	63077	0.146	5
4	63509	0.147	5
4	63941	0.148	5
4	64373	0.149	5
4	64805	0.15	5
4	65237	0.151	5
4	65669	0.152	5
4	66101	0.153	5
4	66533	0.154	5
4	66965	0.155	5
4	67397	0.156	5
4	67829	0.157	5
4	68261	0.158	5
4	68693	0.159	5
4	69125	0.16	5
4	69557	0.161	5
4	69989	0.162	5
4	70421	0.163	5
4	70853	0.164	5
4	71285	0.165	5
4	71717	0.166	5
4	72149	0.167	5
4	72581	0.168	5
4	73013	0.169	5
4	73445	0.17	5
4	73877	0.171	5
4	74309	0.172	5
4	74741	0.173	5
4	75173	0.174	5
4	75605	0.175	5
4	76037	0.176	5
4	76469	0.177	5
4	76901	0.178	5
4	77333	0.179	5
4	77765	0.18	5
4	78197	0.181	5
4	78629	0.182	5
4	79061	0.183	5
4	79493	0.184	5
4	79925	0.185	5
4	80357	0.186	5
4	80789	0.187	5
4	81221	0.188	5
4	81653	0.189	5
4	82085	0.19	5
4	82517	0.191	5
4	82949	0.192	5
4	83381	0.193	5
4	83813	0.194	5
4	84245	0.195	5
4	84677	0.196	5
4	85109	0.197	5
4	85541	0.198	5
4	85973	0.199	5
4	86405	0.2	5
4	86837	0.201	5
4	87269	0.202	5
4	87701	0.203	5
4	88133	0.204	5
4	88565	0.205	5
4	88997	0.206	5
4	89429	0.207	5
4	89861	0.208	5
4	90293	0.209	5
4	90725	0.21	5
4	91157	0.211	5
4	91589	0.212	5
4	92021	0.213	5
4	92453	0.214	5
4	92885	0.215	5
4	93317	0.216	5
4	93749	0.217	5
4	94181	0.218	5
4	94613	0.219	5
4	95045	0.22	5
4	95477	0.221	5
4	95909	0.222	5
4	96341	0.223	5
4	96773	0.224	5
4	97205	0.225	5
4	97637	0.226	5
4	98069	0.227	5
4	98501	0.228	5
4	98933	0.229	5
4	99365	0.23	5
4	99797	0.231	5
4	100229	0.232	5
4	100661	0.233	5
4	101093	0.234	5
4	101525	0.235	5
4	101957	0.236	5
4	102389	0.237	5
4	102821	0.238	5
4	103253	0.239	5
4	103685	0.24	5
4	104117	0.241	5
4	104549	0.242	5
4	104981	0.243	5
4	105413	0.244	5
4	105845	0.245	5
4	106277	0.246	5
4	106709	0.247	5
4	107141	0.248	5
4	107573	0.249	5
4	108005	0.25	5
4	108437	0.251	5
4	108869	0.252	5
4	109301	0.253	5
4	109733	0.254	5
4	110165	0.255	5
4	110597	0.256	5
4	111029	0.257	5
4	111461	0.258	5
4	111893	0.259	5
4	112325	0.26	5
4	112757	0.261	5
4	113189	0.262	5
4	113621	0.263	5
4	114053	0.264	5
4	114485	0.265	5
4	114917	0.266	5
4	115349	0.267	5
4	115781	0.268	5
4	116213	0.269	5
4	116645	0.27	5
4	117077	0.271	5
4	117509	0.272	5
4	117941	0.273	5
4	118373	0.274	5
4	118805	0.275	5
4	119237	0.276	5
4	119669	0.277	5
4	120101	0.278	5
4	120533	0.279	5
4	120965	0.28	5
4	121397	0.281	5
4	121829	0.282	5
4	122261	0.283	5
4	122693	0.284	5
4	123125	0.285	5
4	123557	0.286	5
4	123989	0.287	5
[...]
36	134779	0.31157216	3070080
36	135211	0.31257216	3079920
36	135643	0.31357216	3089760
36	136075	0.31457216	3099600
36	136507	0.31557216	3109440
36	136939	0.31657216	3119280
36	137371	0.31757216	3129120
36	137803	0.31857216	3138960
36	138235	0.31957216	3148800
36	138667	0.32057216	3158640
36	139099	0.32157216	3168480
36	139531	0.32257216	3178320
36	139963	0.32357216	3188160
36	140395	0.32457216	3198000
36	140827	0.32557216	3207840
36	141259	0.32657216	3217680
36	141691	0.32757216	3227520
36	142123	0.32857216	3237360
36	142555	0.32957216	3247200
36	142987	0.33057216	3257040
36	143419	0.33157216	3266880
36	143851	0.33257216	3276720
36	144283	0.33357216	3286560
36	144715	0.33457216	3296400
36	145147	0.33557216	3306240
36	145579	0.33657216	3316080
36	146011	0.33757216	3325920
36	146443	0.33857216	3335760
36	146875	0.33957216	3345600
36	147307	0.34057216	3355440
36	147739	0.34157216	3365280
36	148171	0.34257216	3375120
36	148603	0.34357216	3384960
36	149035	0.34457216	3394800
36	149467	0.34557216	3404640
36	149899	0.34657216	3414480
36	150331	0.34757216	3424320
36	150763	0.34857216	3434160
36	151195	0.34957216	3444000
36	151627	0.35057216	3453840
36	152059	0.35157216	3463680
36	152491	0.35257216	3473520
36	152923	0.35357216	3483360
36	153355	0.35457216	3493200
36	153787	0.35557216	3503040
36	154219	0.35657216	3512880
36	154651	0.35757216	3522720
36	155083	0.35857216	3532560
36	155515	0.35957216	3542400
36	155947	0.36057216	3552240
36	156379	0.36157216	3562080
36	156811	0.36257216	3571920
36	157243	0.36357216	3581760
36	157675	0.36457216	3591600
36	158107	0.36557216	3601440
36	158539	0.36657216	3611280
36	158971	0.36757216	3621120
36	159403	0.36857216	3630960
36	159835	0.36957216	3640800
36	160267	0.37057216	3650640
36	160699	0.37157216	3660480
36	161131	0.37257216	3670320
36	161563	0.37357216	3680160
36	161995	0.37457216	3690000
36	162427	0.37557216	3699840
36	162859	0.37657216	3709680
36	163291	0.37757216	3719520
36	163723	0.37857216	3729360
36	164155	0.37957216	3739200
36	164587	0.38057216	3749040
36	165019	0.38157216	3758880
36	165451	0.38257216	3768720
36	165883	0.38357216	3778560
36	166315	0.38457216	3788400
36	166747	0.38557216	3798240
36	167179	0.38657216	3808080
36	167611	0.38757216	3817920
36	168043	0.38857216	3827760
36	168475	0.38957216	3837600
36	168907	0.39057216	3847440
36	169339	0.39157216	3857280
36	169771	0.39257216	3867120
36	170203	0.39357216	3876960
36	170635	0.39457216	3886800
36	171067	0.39557216	3896640
36	171499	0.39657216	3906480
36	171931	0.39757216	3916320
36	172363	0.39857216	3926160
36	172795	0.39957216	3936000
36	173227	0.40057216	3945840
36	173659	0.40157216	3955680
36	174091	0.40257216	3965520
36	174523	0.40357216	3975360
36	174955	0.40457216	3985200
36	175387	0.40557216	3995040
36	175819	0.40657216	4004880
36	176251	0.40757216	4014720
36	176683	0.40857216	4024560
36	177115	0.40957216	4034400
36	177547	0.41057216	4044240
36	177979	0.41157216	4054080
36	178411	0.41257216	4063920
36	178843	0.41357216	4073760
36	179275	0.41457216	4083600
36	179707	0.41557216	4093440
36	180139	0.41657216	4103280
36	180571	0.41757216	4113120
36	181003	0.41857216	4122960
36	181435	0.41957216	4132800
36	181867	0.42057216	4142640
36	182299	0.42157216	4152480
36	182731	0.42257216	4162320
36	183163	0.42357216	4172160
36	183595	0.42457216	4182000
36	184027	0.42557216	4191840
36	184459	0.42657216	4201680
36	184891	0.42757216	4211520
36	185323	0.42857216	4221360
36	185755	0.42957216	4231200
36	186187	0.43057216	4241040
36	186619	0.43157216	4250880
36	187051	0.43257216	4260720
36	187483	0.43357216	4270560
36	187915	0.43457216	4280400
36	188347	0.43557216	4290240
36	188779	0.43657216	4300080
36	189211	0.43757216	4309920
36	189643	0.43857216	4319760
36	190075	0.43957216	4329600
36	190507	0.44057216	4339440
36	190939	0.44157216	4349280
36	191371	0.44257216	4359120
36	191803	0.44357216	4368960
36	192235	0.44457216	4378800
36	192667	0.44557216	4388640
36	193099	0.44657216	4398480
36	193531	0.44757216	4408320
36	193963	0.44857216	4418160
36	194395	0.44957216	4428000
36	194827	0.45057216	4437840
36	195259	0.45157216	4447680
36	195691	0.45257216	4457520
36	196123	0.45357216	4467360
36	196555	0.45457216	4477200
36	196987	0.45557216	4487040
36	197419	0.45657216	4496880
36	197851	0.45757216	4506720
36	198283	0.45857216	4516560
36	198715	0.45957216	4526400
36	199147	0.46057216	4536240
36	199579	0.46157216	4546080
36	200011	0.46257216	4555920
36	200443	0.46357216	4565760
36	200875	0.46457216	4575600
36	201307	0.46557216	4585440
36	201739	0.46657216	4595280
36	202171	0.46757216	4605120
36	202603	0.46857216	4614960
36	203035	0.46957216	4624800
36	203467	0.47057216	4634640
36	203899	0.47157216	4644480
36	204331	0.47257216	4654320
36	204763	0.47357216	4664160
36	205195	0.47457216	4674000
36	205627	0.47557216	4683840
36	206059	0.47657216	4693680
36	206491	0.47757216	4703520
36	206923	0.47857216	4713360
36	207355	0.47957216	4723200
36	207787	0.48057216	4733040
36	208219	0.48157216	4742880
36	208651	0.48257216	4752720
36	209083	0.48357216	4762560
36	209515	0.48457216	4772400
36	209947	0.48557216	4782240
36	210379	0.48657216	4792080
36	210811	0.48757216	4801920
36	211243	0.48857216	4811760
36	211675	0.48957216	4821600
36	212107	0.49057216	4831440
36	212539	0.49157216	4841280
36	212971	0.49257216	4851120
36	213403	0.49357216	4860960
36	213835	0.49457216	4870800
36	214267	0.49557216	4880640
36	214699	0.49657216	4890480
36	215131	0.49757216	4900320
36	215563	0.49857216	4910160
36	215995	0.49957216	4920000
36	216427	0.50057216	4929840
36	216859	0.50157216	4939680
36	217291	0.50257216	4949520
36	217723	0.50357216	4959360
36	218155	0.50457216	4969200
36	218587	0.50557216	4979040
36	219019	0.50657216	4988880
36	219451	0.50757216	4998720
36	219883	0.50857216	5008560
36	220315	0.50957216	5018400
36	220747	0.51057216	5028240
36	221179	0.51157216	5038080
36	221611	0.51257216	5047920
36	222043	0.51357216	5057760
36	222475	0.51457216	5067600
36	222907	0.51557216	5077440
36	223339	0.51657216	5087280
36	223771	0.51757216	5097120
36	224203	0.51857216	5106960
36	224635	0.51957216	5116800
36	225067	0.52057216	5126640
36	225499	0.52157216	5136480
36	225931	0.52257216	5146320
36	226363	0.52357216	5156160
36	226795	0.52457216	5166000
36	227227	0.52557216	5175840
36	227659	0.52657216	5185680
36	228091	0.52757216	5195520
36	228523	0.52857216	5205360
36	228955	0.52957216	5215200
36	229387	0.53057216	5225040
36	229819	0.53157216	5234880
36	230251	0.53257216	5244720
36	230683	0.53357216	5254560
36	231115	0.53457216	5264400
36	231547	0.53557216	5274240
36	231979	0.53657216	5284080
36	232411	0.53757216	5293920
36	232843	0.53857216	5303760
36	233275	0.53957216	5313600
36	233707	0.54057216	5323440
36	234139	0.54157216	5333280
36	234571	0.54257216	5343120
36	235003	0.54357216	5352960
36	235435	0.54457216	5362800
36	235867	0.54557216	5372640
36	236299	0.54657216	5382480
36	236731	0.54757216	5392320
36	237163	0.54857216	5402160
36	237595	0.54957216	5412000
36	238027	0.55057216	5421840
36	238459	0.55157216	5431680
36	238891	0.55257216	5441520
36	239323	0.55357216	5451360
36	239755	0.55457216	5461200
36	240187	0.55557216	5471040
36	240619	0.55657216	5480880
36	241051	0.55757216	5490720
36	241483	0.55857216	5500560
36	241915	0.55957216	5510400
36	242347	0.56057216	5520240
36	242779	0.56157216	5530080
36	243211	0.56257216	5539920
36	243643	0.56357216	5549760
36	244075	0.56457216	5559600
36	244507	0.56557216	5569440
36	244939	0.56657216	5579280
36	245371	0.56757216	5589120
36	245803	0.56857216	5598960
36	246235	0.56957216	5608800
36	246667	0.57057216	5618640
36	247099	0.57157216	5628480
36	247531	0.57257216	5638320
36	247963	0.57357216	5648160
36	248395	0.57457216	5658000
36	248827	0.57557216	5667840
36	249259	0.57657216	5677680
36	249691	0.57757216	5687520
36	250123	0.57857216	5697360
36	250555	0.57957216	5707200
36	250987	0.58057216	5717040
36	251419	0.58157216	5726880
36	251851	0.58257216	5736720
36	252283	0.58357216	5746560
36	252715	0.58457216	5756400
36	253147	0.58557216	5766240
36	253579	0.58657216	5776080
36	254011	0.58757216	5785920
36	254443	0.58857216	5795760
36	254875	0.58957216	5805600
36	255307	0.59057216	5815440
36	255739	0.59157216	5825280
36	256171	0.59257216	5835120
36	256603	0.59357216	5844960
36	257035	0.59457216	5854800
36	257467	0.59557216	5864640
36	257899	0.59657216	5874480
36	258331	0.59757216	5884320
36	258763	0.59857216	5894160
36	259195	0.59957216	5904000
36	259627	0.60057216	5913840
36	260059	0.60157216	5923680
36	260491	0.60257216	5933520
36	260923	0.60357216	5943360
36	261355	0.60457216	5953200
36	261787	0.60557216	5963040
36	262219	0.60657216	5972880
36	262651	0.60757216	5982720
36	263083	0.60857216	5992560
36	263515	0.60957216	6002400
36	263947	0.61057216	6012240
36	264379	0.61157216	6022080
36	264811	0.61257216	6031920
36	265243	0.61357216	6041760
36	265675	0.61457216	6051600
36	266107	0.61557216	6061440
36	266539	0.61657216	6071280
36	266971	0.61757216	6081120
36	267403	0.61857216	6090960
36	267835	0.61957216	6100800
36	268267	0.62057216	6110640
36	268699	0.62157216	6120480
36	269131	0.62257216	6130320
36	269563	0.62357216	6140160
36	269995	0.62457216	6150000
36	270427	0.62557216	6159840
36	270859	0.62657216	6169680
36	271291	0.62757216	6179520
36	271723	0.62857216	6189360
36	272155	0.62957216	6199200
36	272587	0.63057216	6209040
36	273019	0.63157216	6218880
36	273451	0.63257216	6228720
36	273883	0.63357216	6238560
36	274315	0.63457216	6248400
36	274747	0.63557216	6258240
36	275179	0.63657216	6268080
36	275611	0.63757216	6277920
36	276043	0.63857216	6287760
36	276475	0.63957216	6297600
36	276907	0.64057216	6307440
36	277339	0.64157216	6317280
36	277771	0.64257216	6327120
36	278203	0.64357216	6336960
36	278635	0.64457216	6346800
36	279067	0.64557216	6356640
36	279499	0.64657216	6366480
36	279931	0.64757216	6376320
36	280363	0.64857216	6386160
36	280795	0.64957216	6396000
36	281227	0.65057216	6405840
36	281659	0.65157216	6415680
36	282091	0.65257216	6425520
36	282523	0.65357216	6435360
36	282955	0.65457216	6445200
36	283387	0.65557216	6455040
36	283819	0.65657216	6464880
36	284251	0.65757216	6474720
36	284683	0.65857216	6484560
36	285115	0.65957216	6494400
36	285547	0.66057216	6504240
36	285979	0.66157216	6514080
36	286411	0.66257216	6523920
36	286843	0.66357216	6533760
36	287275	0.66457216	6543600
36	287707	0.66557216	6553440
36	288139	0.66657216	6563280
36	288571	0.66757216	6573120
36	289003	0.66857216	6582960
36	289435	0.66957216	6592800
36	289867	0.67057216	6602640
36	290299	0.67157216	6612480
36	290731	0.67257216	6622320
36	291163	0.67357216	6632160
36	291595	0.67457216	6642000
36	292027	0.67557216	6651840
36	292459	0.67657216	6661680
36	292891	0.67757216	6671520
36	293323	0.67857216	6681360
36	293755	0.67957216	6691200
36	294187	0.68057216	6701040
36	294619	0.68157216	6710880
36	295051	0.68257216	6720720
36	295483	0.68357216	6730560
36	295915	0.68457216	6740400
36	296347	0.68557216	6750240
36	296779	0.68657216	6760080
36	297211	0.68757216	6769920
36	297643	0.68857216	6779760
36	298075	0.68957216	6789600
36	298507	0.69057216	6799440
36	298939	0.69157216	6809280
36	299371	0.69257216	6819120
36	299803	0.69357216	6828960
36	300235	0.69457216	6838800
36	300667	0.69557216	6848640
36	301099	0.69657216	6858480
36	301531	0.69757216	6868320
36	301963	0.69857216	6878160
36	302395	0.69957216	6888000
36	302827	0.70057216	6897840
36	303259	0.70157216	6907680
36	303691	0.70257216	6917520
36	304123	0.70357216	6927360
36	304555	0.70457216	6937200
36	304987	0.70557216	6947040
36	305419	0.70657216	6956880
36	305851	0.70757216	6966720
36	306283	0.70857216	6976560
36	306715	0.70957216	6986400
36	307147	0.71057216	6996240
36	307579	0.71157216	7006080
36	308011	0.71257216	7015920
36	308443	0.71357216	7025760
36	308875	0.71457216	7035600
36	309307	0.71557216	7045440
36	309739	0.71657216	7055280
36	310171	0.71757216	7065120
36	310603	0.71857216	7074960
36	311035	0.71957216	7084800
36	311467	0.72057216	7094640
36	311899	0.72157216	7104480
36	312331	0.72257216	7114320
36	312763	0.72357216	7124160
36	313195	0.72457216	7134000
36	313627	0.72557216	7143840
36	314059	0.72657216	7153680
36	314491	0.72757216	7163520
36	314923	0.72857216	7173360
36	315355	0.72957216	7183200
36	315787	0.73057216	7193040
36	316219	0.73157216	7202880
36	316651	0.73257216	7212720
36	317083	0.73357216	7222560
36	317515	0.73457216	7232400
36	317947	0.73557216	7242240
36	318379	0.73657216	7252080
36	318811	0.73757216	7261920
36	319243	0.73857216	7271760
36	319675	0.73957216	7281600
36	320107	0.74057216	7291440
36	320539	0.74157216	7301280
36	320971	0.74257216	7311120
36	321403	0.74357216	7320960
36	321835	0.74457216	7330800
36	322267	0.74557216	7340640
36	322699	0.74657216	7350480
36	323131	0.74757216	7360320
36	323563	0.74857216	7370160
36	323995	0.74957216	7380000
36	324427	0.75057216	7389840
36	324859	0.75157216	7399680
36	325291	0.75257216	7409520
36	325723	0.75357216	7419360
36	326155	0.75457216	7429200
36	326587	0.75557216	7439040
36	327019	0.75657216	7448880
36	327451	0.75757216	7458720
36	327883	0.75857216	7468560
36	328315	0.75957216	7478400
36	328747	0.76057216	7488240
36	329179	0.76157216	7498080
36	329611	0.76257216	7507920
36	330043	0.76357216	7517760
36	330475	0.76457216	7527600
36	330907	0.76557216	7537440
36	331339	0.76657216	7547280
36	331771	0.76757216	7557120
36	332203	0.76857216	7566960
36	332635	0.76957216	7576800
36	333067	0.77057216	7586640
36	333499	0.77157216	7596480
36	333931	0.77257216	7606320
36	334363	0.77357216	7616160
36	334795	0.77457216	7626000
36	335227	0.77557216	7635840
36	335659	0.77657216	7645680
36	336091	0.77757216	7655520
36	336523	0.77857216	7665360
36	336955	0.77957216	7675200
36	337387	0.78057216	7685040
36	337819	0.78157216	7694880
36	338251	0.78257216	7704720
36	338683	0.78357216	7714560
36	339115	0.78457216	7724400
36	339547	0.78557216	7734240
36	339979	0.78657216	7744080
36	340411	0.78757216	7753920
36	340843	0.78857216	7763760
36	341275	0.78957216	7773600
36	341707	0.79057216	7783440
36	342139	0.79157216	7793280
36	342571	0.79257216	7803120
36	343003	0.79357216	7812960
36	343435	0.79457216	7822800
36	343867	0.79557216	7832640
36	344299	0.79657216	7842480
36	344731	0.79757216	7852320
36	345163	0.79857216	7862160
36	345595	0.79957216	7872000
36	346027	0.80057216	7881840
36	346459	0.80157216	7891680
36	346891	0.80257216	7901520
36	347323	0.80357216	7911360
36	347755	0.80457216	7921200
36	348187	0.80557216	7931040
36	348619	0.80657216	7940880
36	349051	0.80757216	7950720
36	349483	0.80857216	7960560
36	349915	0.80957216	7970400
36	350347	0.81057216	7980240
36	350779	0.81157216	7990080
36	351211	0.81257216	7999920
36	351643	0.81357216	8009760
36	352075	0.81457216	8019600
36	352507	0.81557216	8029440
36	352939	0.81657216	8039280
36	353371	0.81757216	8049120
36	353803	0.81857216	8058960
36	354235	0.81957216	8068800
36	354667	0.82057216	8078640
36	355099	0.82157216	8088480
36	355531	0.82257216	8098320
36	355963	0.82357216	8108160
36	356395	0.82457216	8118000
36	356827	0.82557216	8127840
36	357259	0.82657216	8137680
36	357691	0.82757216	8147520
36	358123	0.82857216	8157360
36	358555	0.82957216	8167200
36	358987	0.83057216	8177040
36	359419	0.83157216	8186880
36	359851	0.83257216	8196720
36	360283	0.83357216	8206560
36	360715	0.83457216	8216400
36	361147	0.83557216	8226240
36	361579	0.83657216	8236080
36	362011	0.83757216	8245920
36	362443	0.83857216	8255760
36	362875	0.83957216	8265600
36	363307	0.84057216	8275440
36	363739	0.84157216	8285280
36	364171	0.84257216	8295120
36	364603	0.84357216	8304960
36	365035	0.84457216	8314800
36	365467	0.84557216	8324640
36	365899	0.84657216	8334480
36	366331	0.84757216	8344320
36	366763	0.84857216	8354160
36	367195	0.84957216	8364000
36	367627	0.85057216	8373840
36	368059	0.85157216	8383680
36	368491	0.85257216	8393520
36	368923	0.85357216	8403360
36	369355	0.85457216	8413200
36	369787	0.85557216	8423040
36	370219	0.85657216	8432880
36	370651	0.85757216	8442720
36	371083	0.85857216	8452560
36	371515	0.85957216	8462400
36	371947	0.86057216	8472240
36	372379	0.86157216	8482080
36	372811	0.86257216	8491920
36	373243	0.86357216	8501760
36	373675	0.86457216	8511600
36	374107	0.86557216	8521440
36	374539	0.86657216	8531280
36	374971	0.86757216	8541120
36	375403	0.86857216	8550960
36	375835	0.86957216	8560800
36	376267	0.87057216	8570640
36	376699	0.87157216	8580480
36	377131	0.87257216	8590320
36	377563	0.87357216	8600160
36	377995	0.87457216	8610000
36	378427	0.87557216	8619840
36	378859	0.87657216	8629680
36	379291	0.87757216	8639520
36	379723	0.87857216	8649360
36	380155	0.87957216	8659200
36	380587	0.88057216	8669040
36	381019	0.88157216	8678880
36	381451	0.88257216	8688720
36	381883	0.88357216	8698560
36	382315	0.88457216	8708400
36	382747	0.88557216	8718240
36	383179	0.88657216	8728080
36	383611	0.88757216	8737920
36	384043	0.88857216	8747760
36	384475	0.88957216	8757600
36	384907	0.89057216	8767440
36	385339	0.89157216	8777280
36	385771	0.89257216	8787120
36	386203	0.89357216	8796960
36	386635	0.89457216	8806800
36	387067	0.89557216	8816640
36	387499	0.89657216	8826480
36	387931	0.89757216	8836320
36	388363	0.89857216	8846160
36	388795	0.89957216	8856000
36	389227	0.90057216	8865840
36	389659	0.90157216	8875680
36	390091	0.90257216	8885520
36	390523	0.90357216	8895360
36	390955	0.90457216	8905200
36	391387	0.90557216	8915040
36	391819	0.90657216	8924880
36	392251	0.90757216	8934720
36	392683	0.90857216	8944560
36	393115	0.90957216	8954400
36	393547	0.91057216	8964240
36	393979	0.91157216	8974080
36	394411	0.91257216	8983920
36	394843	0.91357216	8993760
36	395275	0.91457216	9003600
36	395707	0.91557216	9013440
36	396139	0.91657216	9023280
36	396571	0.91757216	9033120
36	397003	0.91857216	9042960
36	397435	0.91957216	9052800
36	397867	0.92057216	9062640
36	398299	0.92157216	9072480
36	398731	0.92257216	9082320
36	399163	0.92357216	9092160
36	399595	0.92457216	9102000
36	400027	0.92557216	9111840
36	400459	0.92657216	9121680
36	400891	0.92757216	9131520
36	401323	0.92857216	9141360
36	401755	0.92957216	9151200
36	402187	0.93057216	9161040
36	402619	0.93157216	9170880
36	403051	0.93257216	9180720
36	403483	0.93357216	9190560
36	403915	0.93457216	9200400
36	404347	0.93557216	9210240
36	404779	0.93657216	9220080
36	405211	0.93757216	9229920
36	405643	0.93857216	9239760
36	406075	0.93957216	9249600
36	406507	0.94057216	9259440
36	406939	0.94157216	9269280
36	407371	0.94257216	9279120
36	407803	0.94357216	9288960
36	408235	0.94457216	9298800
36	408667	0.94557216	9308640
36	409099	0.94657216	9318480
36	409531	0.94757216	9328320
36	409963	0.94857216	9338160
36	410395	0.94957216	9348000
36	410827	0.95057216	9357840
36	411259	0.95157216	9367680
36	411691	0.95257216	9377520
36	412123	0.95357216	9387360
36	412555	0.95457216	9397200
36	412987	0.95557216	9407040
36	413419	0.95657216	9416880
36	413851	0.95757216	9426720
36	414283	0.95857216	9436560
36	414715	0.95957216	9446400
36	415147	0.96057216	9456240
36	415579	0.96157216	9466080
36	416011	0.96257216	9475920
36	416443	0.96357216	9485760
36	416875	0.96457216	9495600
36	417307	0.96557216	9505440
36	417739	0.96657216	9515280
36	418171	0.96757216	9525120
36	418603	0.96857216	9534960
36	419035	0.96957216	9544800
36	419467	0.97057216	9554640
36	419899	0.97157216	9564480
36	420331	0.97257216	9574320
36	420763	0.97357216	9584160
36	421195	0.97457216	9594000
36	421627	0.97557216	9603840
36	422059	0.97657216	9613680
36	422491	0.97757216	9623520
36	422923	0.97857216	9633360
36	423355	0.97957216	9643200
36	423787	0.98057216	9653040
36	424219	0.98157216	9662880
36	424651	0.98257216	9672720
36	425083	0.98357216	9682560
36	425515	0.98457216	9692400
36	425947	0.98557216	9702240
36	426379	0.98657216	9712080
36	426811	0.98757216	9721920
36	427243	0.98857216	9731760
36	427675	0.98957216	9741600
36	428107	0.99057216	9751440
36	428539	0.99157216	9761280
36	428971	0.99257216	9771120
36	429403	0.99357216	9780960
36	429835	0.99457216	9790800
36	430267	0.99557216	9800640
36	430699	0.99657216	9810480
36	431131	0.99757216	9820320
36	431563	0.99857216	9830160
36	431995	0.99957216	9840000

